CHEMBL25-Var1489
     RDKit          2D

 14 16  0  0  0  0  0  0  0  0999 V2000
    1.2764   -2.5300    0.0000 C   0  0  0  0  0  0  0  0  0  0  0  0
   -0.0010   -1.7437    0.0000 S   0  0  0  0  0  0  0  0  0  0  0  0
    0.0412   -0.2443    0.0000 C   0  0  0  0  0  0  0  0  0  0  0  0
    1.5280   -0.4431    0.0000 C   0  0  0  0  0  0  0  0  0  0  0  0
    2.4435    0.7451    0.0000 O   0  0  0  0  0  0  0  0  0  0  0  0
    2.0993   -1.8300    0.0000 O   0  0  0  0  0  0  0  0  0  0  0  0
    0.3943    1.2135    0.0000 C   0  0  0  0  0  0  0  0  0  0  0  0
    1.2760    0.0000    0.0000 C   0  0  0  0  0  0  0  0  0  0  0  0
    0.3943   -1.2135    0.0000 C   0  0  0  0  0  0  0  0  0  0  0  0
   -1.0323   -0.7500    0.0000 C   0  0  0  0  0  0  0  0  0  0  0  0
   -1.0323    0.7500    0.0000 C   0  0  0  0  0  0  0  0  0  0  0  0
   -2.4589    1.2135    0.0000 C   0  0  0  0  0  0  0  0  0  0  0  0
   -3.3405    0.0000    0.0000 C   0  0  0  0  0  0  0  0  0  0  0  0
   -2.4589   -1.2135    0.0000 C   0  0  0  0  0  0  0  0  0  0  0  0
  1  2  1  0
  2  3  1  0
  3  4  1  0
  4  5  2  0
  4  6  1  0
  3  7  1  0
  7  8  1  0
  8  9  1  0
  9 10  1  0
 10 11  1  0
 11 12  1  0
 12 13  1  0
 13 14  1  0
 14  3  1  0
 11  7  1  0
 14 10  1  0
M  END
>  <SMILES>  (1) 
CSC1(C(=O)O)C2CCC3C2CCC31

>  <Formula>  (1) 
C11H16O2S

>  <MW>  (1) 
212.31399999999999

>  <HeavyAtoms>  (1) 
14

>  <TotalAtoms>  (1) 
14

>  <FormalCharge>  (1) 
0

>  <CLogP>  (1) 
2.2389999999999999

>  <MolarRefractivity>  (1) 
56.310000000000002

>  <SP3Fraction>  (1) 
0.90900000000000003

>  <TPSA>  (1) 
37.299999999999997

>  <LabuteASA>  (1) 
88.450000000000003

>  <RotatableBonds>  (1) 
2

>  <LHBD>  (1) 
1

>  <HBD>  (1) 
1

>  <LHBA>  (1) 
2

>  <HBA>  (1) 
2

>  <TotalRings>  (1) 
3

>  <AromaticRings>  (1) 
0

>  <AromaticCarboCycles>  (1) 
0

>  <AromaticHeteroCycles>  (1) 
0

>  <AliphaticRings>  (1) 
3

>  <AliphaticCarboCycles>  (1) 
3

>  <AliphaticHeteroCycles>  (1) 
0

>  <Bridgehead>  (1) 
4

>  <Spiro>  (1) 
0

>  <LipinskiR3>  (1) 
1

>  <LipinskiR5>  (1) 
1

>  <Ghose>  (1) 
0

>  <Veber>  (1) 
1

>  <REOS>  (1) 
0

>  <Drug-like>  (1) 
1

>  <QED_MaxWeight>  (1) 
0.77500000000000002

>  <QED_MeanWeight>  (1) 
0.76200000000000001

>  <QED_NoWeight>  (1) 
0.79500000000000004

>  <Reference_Name>  (1) 
CHEMBL25

>  <Reference_SMILES>  (1) 
CC(=O)Oc1ccccc1C(=O)O

>  <Reference_Molecule_SMILES>  (1) 
CC(=O)Oc1ccccc1C(=O)O

>  <Morgan_Tanimoto_Distance>  (1) 
0.81481481481481488

>  <CATS_Euclidean_Distance>  (1) 
35.09985754956849

>  <Gobbi_2Dphp_Tanimoto_Distance>  (1) 
0.99350649350649356

>  <2Dphp_Tanimoto_Distance>  (1) 
0.85106382978723405

>  <Synthetic_Accessibility>  (1) 
5.3555632012498702

$$$$
CHEMBL25-Var3509
     RDKit          2D

 13 15  0  0  0  0  0  0  0  0999 V2000
   -5.5905   -1.2990    0.0000 O   0  0  0  0  0  0  0  0  0  0  0  0
   -4.8405    0.0000    0.0000 C   0  0  0  0  0  0  0  0  0  0  0  0
   -5.5905    1.2990    0.0000 O   0  0  0  0  0  0  0  0  0  0  0  0
   -3.3405    0.0000    0.0000 C   0  0  0  0  0  0  0  0  0  0  0  0
   -2.4589    1.2135    0.0000 C   0  0  0  0  0  0  0  0  0  0  0  0
   -1.0323    0.7500    0.0000 C   0  0  0  0  0  0  0  0  0  0  0  0
    0.3943    1.2135    0.0000 C   0  0  0  0  0  0  0  0  0  0  0  0
    1.2760    0.0000    0.0000 C   0  0  0  0  0  0  0  0  0  0  0  0
    0.3943   -1.2135    0.0000 C   0  0  0  0  0  0  0  0  0  0  0  0
   -1.0323   -0.7500    0.0000 C   0  0  0  0  0  0  0  0  0  0  0  0
   -2.4589   -1.2135    0.0000 C   0  0  0  0  0  0  0  0  0  0  0  0
   -2.1058    0.2443    0.0000 C   0  0  0  0  0  0  0  0  0  0  0  0
   -2.4600    0.9585    0.0000 O   0  0  0  0  0  0  0  0  0  0  0  0
  1  2  2  0
  2  3  1  0
  2  4  1  0
  4  5  1  0
  5  6  1  0
  6  7  1  0
  7  8  1  0
  8  9  1  0
  9 10  1  0
 10 11  1  0
 11 12  1  0
 12 13  2  0
 11  4  1  0
 10  6  1  0
 12  7  1  0
M  END
>  <SMILES>  (2) 
O=C(O)C1CC2C3CCC2C1C3=O

>  <Formula>  (2) 
C10H12O3

>  <MW>  (2) 
180.203

>  <HeavyAtoms>  (2) 
13

>  <TotalAtoms>  (2) 
13

>  <FormalCharge>  (2) 
0

>  <CLogP>  (2) 
0.93200000000000005

>  <MolarRefractivity>  (2) 
43.944000000000003

>  <SP3Fraction>  (2) 
0.80000000000000004

>  <TPSA>  (2) 
54.369999999999997

>  <LabuteASA>  (2) 
76.123999999999995

>  <RotatableBonds>  (2) 
1

>  <LHBD>  (2) 
1

>  <HBD>  (2) 
1

>  <LHBA>  (2) 
3

>  <HBA>  (2) 
2

>  <TotalRings>  (2) 
3

>  <AromaticRings>  (2) 
0

>  <AromaticCarboCycles>  (2) 
0

>  <AromaticHeteroCycles>  (2) 
0

>  <AliphaticRings>  (2) 
3

>  <AliphaticCarboCycles>  (2) 
3

>  <AliphaticHeteroCycles>  (2) 
0

>  <Bridgehead>  (2) 
4

>  <Spiro>  (2) 
0

>  <LipinskiR3>  (2) 
1

>  <LipinskiR5>  (2) 
1

>  <Ghose>  (2) 
0

>  <Veber>  (2) 
1

>  <REOS>  (2) 
0

>  <Drug-like>  (2) 
1

>  <QED_MaxWeight>  (2) 
0.66900000000000004

>  <QED_MeanWeight>  (2) 
0.65300000000000002

>  <QED_NoWeight>  (2) 
0.70699999999999996

>  <Reference_Name>  (2) 
CHEMBL25

>  <Reference_SMILES>  (2) 
CC(=O)Oc1ccccc1C(=O)O

>  <Reference_Molecule_SMILES>  (2) 
CC(=O)Oc1ccccc1C(=O)O

>  <Morgan_Tanimoto_Distance>  (2) 
0.81481481481481488

>  <CATS_Euclidean_Distance>  (2) 
41.218927691049899

>  <Gobbi_2Dphp_Tanimoto_Distance>  (2) 
0.99545454545454548

>  <2Dphp_Tanimoto_Distance>  (2) 
0.74576271186440679

>  <Synthetic_Accessibility>  (2) 
5.0985307180822055

$$$$
CHEMBL25-Var1634
     RDKit          2D

 15 16  0  0  0  0  0  0  0  0999 V2000
   -0.4222    3.0474    0.0000 C   0  0  0  0  0  0  0  0  0  0  0  0
   -1.0323    1.6771    0.0000 C   0  0  0  0  0  0  0  0  0  0  0  0
   -2.3313    2.4271    0.0000 C   0  0  0  0  0  0  0  0  0  0  0  0
   -2.3313    3.9271    0.0000 O   0  0  0  0  0  0  0  0  0  0  0  0
   -3.5740    1.8996    0.0000 O   0  0  0  0  0  0  0  0  0  0  0  0
    0.3943    1.2135    0.0000 C   0  0  0  0  0  0  0  0  0  0  0  0
    1.2760    0.0000    0.0000 C   0  0  0  0  0  0  0  0  0  0  0  0
    0.3943   -1.2135    0.0000 C   0  0  0  0  0  0  0  0  0  0  0  0
   -1.0323   -0.7500    0.0000 C   0  0  0  0  0  0  0  0  0  0  0  0
   -1.0323    0.7500    0.0000 O   0  0  0  0  0  0  0  0  0  0  0  0
   -1.9140    0.4635    0.0000 C   0  0  0  0  0  0  0  0  0  0  0  0
   -3.0198    1.2378    0.0000 C   0  0  0  0  0  0  0  0  0  0  0  0
   -3.0287   -0.5402    0.0000 C   0  0  0  0  0  0  0  0  0  0  0  0
   -2.7168   -2.0074    0.0000 O   0  0  0  0  0  0  0  0  0  0  0  0
   -4.4553   -0.0766    0.0000 O   0  0  0  0  0  0  0  0  0  0  0  0
  1  2  1  0
  2  3  1  0
  3  4  2  0
  3  5  1  0
  2  6  1  0
  6  7  1  0
  7  8  1  0
  8  9  1  0
  9 10  1  0
  9 11  1  0
 11 12  1  0
 11 13  1  0
 13 14  2  0
 13 15  1  0
 11  2  1  0
 10  6  1  0
M  END
>  <SMILES>  (3) 
CC1(C(=O)O)C2CCC(O2)C1(C)C(=O)O

>  <Formula>  (3) 
C10H14O5

>  <MW>  (3) 
214.21700000000001

>  <HeavyAtoms>  (3) 
15

>  <TotalAtoms>  (3) 
15

>  <FormalCharge>  (3) 
0

>  <CLogP>  (3) 
0.72899999999999998

>  <MolarRefractivity>  (3) 
49.381

>  <SP3Fraction>  (3) 
0.80000000000000004

>  <TPSA>  (3) 
83.829999999999998

>  <LabuteASA>  (3) 
87.037000000000006

>  <RotatableBonds>  (3) 
2

>  <LHBD>  (3) 
2

>  <HBD>  (3) 
2

>  <LHBA>  (3) 
5

>  <HBA>  (3) 
3

>  <TotalRings>  (3) 
2

>  <AromaticRings>  (3) 
0

>  <AromaticCarboCycles>  (3) 
0

>  <AromaticHeteroCycles>  (3) 
0

>  <AliphaticRings>  (3) 
2

>  <AliphaticCarboCycles>  (3) 
0

>  <AliphaticHeteroCycles>  (3) 
2

>  <Bridgehead>  (3) 
2

>  <Spiro>  (3) 
0

>  <LipinskiR3>  (3) 
1

>  <LipinskiR5>  (3) 
1

>  <Ghose>  (3) 
0

>  <Veber>  (3) 
1

>  <REOS>  (3) 
1

>  <Drug-like>  (3) 
1

>  <QED_MaxWeight>  (3) 
0.72999999999999998

>  <QED_MeanWeight>  (3) 
0.70699999999999996

>  <QED_NoWeight>  (3) 
0.70799999999999996

>  <Reference_Name>  (3) 
CHEMBL25

>  <Reference_SMILES>  (3) 
CC(=O)Oc1ccccc1C(=O)O

>  <Reference_Molecule_SMILES>  (3) 
CC(=O)Oc1ccccc1C(=O)O

>  <Morgan_Tanimoto_Distance>  (3) 
0.80769230769230771

>  <CATS_Euclidean_Distance>  (3) 
40.484564959994323

>  <Gobbi_2Dphp_Tanimoto_Distance>  (3) 
0.94623655913978499

>  <2Dphp_Tanimoto_Distance>  (3) 
0.64150943396226423

>  <Synthetic_Accessibility>  (3) 
5.0816985307508364

$$$$
CHEMBL25-Var1676
     RDKit          2D

 14 15  0  0  0  0  0  0  0  0999 V2000
    3.0000   -2.5981    0.0000 C   0  0  0  0  0  0  0  0  0  0  0  0
    1.5000   -2.5981    0.0000 O   0  0  0  0  0  0  0  0  0  0  0  0
    0.7500   -1.2990    0.0000 C   0  0  0  0  0  0  0  0  0  0  0  0
    1.5000    0.0000    0.0000 C   0  0  0  0  0  0  0  0  0  0  0  0
    0.7500    1.2990    0.0000 C   0  0  0  0  0  0  0  0  0  0  0  0
    1.5000    2.5981    0.0000 C   0  0  0  0  0  0  0  0  0  0  0  0
   -0.7500    1.2990    0.0000 C   0  0  0  0  0  0  0  0  0  0  0  0
   -1.5000    0.0000    0.0000 C   0  0  0  0  0  0  0  0  0  0  0  0
   -0.7500   -1.2990    0.0000 C   0  0  0  0  0  0  0  0  0  0  0  0
   -0.3828    0.5621    0.0000 C   0  0  0  0  0  0  0  0  0  0  0  0
    0.2954   -0.6125    0.0000 C   0  0  0  0  0  0  0  0  0  0  0  0
   -1.5000   -2.5981    0.0000 C   0  0  0  0  0  0  0  0  0  0  0  0
   -3.0000   -2.5981    0.0000 O   0  0  0  0  0  0  0  0  0  0  0  0
   -0.7500   -3.8971    0.0000 O   0  0  0  0  0  0  0  0  0  0  0  0
  1  2  1  0
  2  3  1  0
  3  4  1  0
  4  5  2  0
  5  6  1  0
  5  7  1  0
  7  8  1  0
  8  9  1  0
  7 10  1  0
 10 11  1  0
 11 12  1  0
 12 13  2  0
 12 14  1  0
  9  3  1  0
 11  3  1  0
M  END
>  <SMILES>  (4) 
COC12C=C(C)C(CC1)CC2C(=O)O

>  <Formula>  (4) 
C11H16O3

>  <MW>  (4) 
196.24600000000001

>  <HeavyAtoms>  (4) 
14

>  <TotalAtoms>  (4) 
14

>  <FormalCharge>  (4) 
0

>  <CLogP>  (4) 
1.8320000000000001

>  <MolarRefractivity>  (4) 
51.963999999999999

>  <SP3Fraction>  (4) 
0.72699999999999998

>  <TPSA>  (4) 
46.530000000000001

>  <LabuteASA>  (4) 
83.757000000000005

>  <RotatableBonds>  (4) 
2

>  <LHBD>  (4) 
1

>  <HBD>  (4) 
1

>  <LHBA>  (4) 
3

>  <HBA>  (4) 
2

>  <TotalRings>  (4) 
3

>  <AromaticRings>  (4) 
0

>  <AromaticCarboCycles>  (4) 
0

>  <AromaticHeteroCycles>  (4) 
0

>  <AliphaticRings>  (4) 
3

>  <AliphaticCarboCycles>  (4) 
3

>  <AliphaticHeteroCycles>  (4) 
0

>  <Bridgehead>  (4) 
2

>  <Spiro>  (4) 
0

>  <LipinskiR3>  (4) 
1

>  <LipinskiR5>  (4) 
1

>  <Ghose>  (4) 
0

>  <Veber>  (4) 
1

>  <REOS>  (4) 
0

>  <Drug-like>  (4) 
1

>  <QED_MaxWeight>  (4) 
0.68000000000000005

>  <QED_MeanWeight>  (4) 
0.68500000000000005

>  <QED_NoWeight>  (4) 
0.75

>  <Reference_Name>  (4) 
CHEMBL25

>  <Reference_SMILES>  (4) 
CC(=O)Oc1ccccc1C(=O)O

>  <Reference_Molecule_SMILES>  (4) 
CC(=O)Oc1ccccc1C(=O)O

>  <Morgan_Tanimoto_Distance>  (4) 
0.74193548387096775

>  <CATS_Euclidean_Distance>  (4) 
34.452866353904433

>  <Gobbi_2Dphp_Tanimoto_Distance>  (4) 
0.9609375

>  <2Dphp_Tanimoto_Distance>  (4) 
0.79629629629629628

>  <Synthetic_Accessibility>  (4) 
4.9575019871022104

$$$$
CHEMBL25-Var3066
     RDKit          2D

 14 16  0  0  0  0  0  0  0  0999 V2000
    3.0000   -2.5981    0.0000 O   0  0  0  0  0  0  0  0  0  0  0  0
    1.5000   -2.5981    0.0000 C   0  0  0  0  0  0  0  0  0  0  0  0
    0.7500   -3.8971    0.0000 O   0  0  0  0  0  0  0  0  0  0  0  0
    0.7500   -1.2990    0.0000 C   0  0  0  0  0  0  0  0  0  0  0  0
    1.5000    0.0000    0.0000 C   0  0  0  0  0  0  0  0  0  0  0  0
    0.7500    1.2990    0.0000 C   0  0  0  0  0  0  0  0  0  0  0  0
   -0.7500    1.2990    0.0000 C   0  0  0  0  0  0  0  0  0  0  0  0
   -1.5000    0.0000    0.0000 C   0  0  0  0  0  0  0  0  0  0  0  0
    1.7010   -0.7500    0.0000 C   0  0  0  0  0  0  0  0  0  0  0  0
    3.0000   -0.0000    0.0000 C   0  0  0  0  0  0  0  0  0  0  0  0
    4.5000   -0.0000    0.0000 F   0  0  0  0  0  0  0  0  0  0  0  0
    2.2500    1.2990    0.0000 C   0  0  0  0  0  0  0  0  0  0  0  0
    2.2500   -1.2990    0.0000 C   0  0  0  0  0  0  0  0  0  0  0  0
   -0.7500   -1.2990    0.0000 C   0  0  0  0  0  0  0  0  0  0  0  0
  1  2  2  0
  2  3  1  0
  2  4  1  0
  4  5  1  0
  5  6  1  0
  6  7  1  0
  7  8  1  0
  8  9  1  0
  9 10  1  0
 10 11  1  0
 10 12  1  0
 10 13  1  0
  8 14  1  0
 13  4  1  0
 14  4  1  0
 12  6  1  0
M  END
>  <SMILES>  (5) 
O=C(O)C12CC3CC(CC(F)(C3)C1)C2

>  <Formula>  (5) 
C11H15FO2

>  <MW>  (5) 
198.23699999999999

>  <HeavyAtoms>  (5) 
14

>  <TotalAtoms>  (5) 
14

>  <FormalCharge>  (5) 
0

>  <CLogP>  (5) 
2.3799999999999999

>  <MolarRefractivity>  (5) 
48.590000000000003

>  <SP3Fraction>  (5) 
0.90900000000000003

>  <TPSA>  (5) 
37.299999999999997

>  <LabuteASA>  (5) 
82.492000000000004

>  <RotatableBonds>  (5) 
1

>  <LHBD>  (5) 
1

>  <HBD>  (5) 
1

>  <LHBA>  (5) 
2

>  <HBA>  (5) 
1

>  <TotalRings>  (5) 
4

>  <AromaticRings>  (5) 
0

>  <AromaticCarboCycles>  (5) 
0

>  <AromaticHeteroCycles>  (5) 
0

>  <AliphaticRings>  (5) 
4

>  <AliphaticCarboCycles>  (5) 
4

>  <AliphaticHeteroCycles>  (5) 
0

>  <Bridgehead>  (5) 
4

>  <Spiro>  (5) 
0

>  <LipinskiR3>  (5) 
1

>  <LipinskiR5>  (5) 
1

>  <Ghose>  (5) 
0

>  <Veber>  (5) 
1

>  <REOS>  (5) 
0

>  <Drug-like>  (5) 
1

>  <QED_MaxWeight>  (5) 
0.71399999999999997

>  <QED_MeanWeight>  (5) 
0.70199999999999996

>  <QED_NoWeight>  (5) 
0.74199999999999999

>  <Reference_Name>  (5) 
CHEMBL25

>  <Reference_SMILES>  (5) 
CC(=O)Oc1ccccc1C(=O)O

>  <Reference_Molecule_SMILES>  (5) 
CC(=O)Oc1ccccc1C(=O)O

>  <Morgan_Tanimoto_Distance>  (5) 
0.85714285714285721

>  <CATS_Euclidean_Distance>  (5) 
34.785054261852174

>  <Gobbi_2Dphp_Tanimoto_Distance>  (5) 
0.99199999999999999

>  <2Dphp_Tanimoto_Distance>  (5) 
0.64285714285714279

>  <Synthetic_Accessibility>  (5) 
4.9290199621360991

$$$$
CHEMBL25-Var156
     RDKit          2D

 14 15  0  0  0  0  0  0  0  0999 V2000
    3.0000    0.0000    0.0000 C   0  0  0  0  0  0  0  0  0  0  0  0
    1.5000    0.0000    0.0000 C   0  0  0  0  0  0  0  0  0  0  0  0
    0.7500   -1.2990    0.0000 C   0  0  0  0  0  0  0  0  0  0  0  0
   -0.7500   -1.2990    0.0000 C   0  0  0  0  0  0  0  0  0  0  0  0
   -2.2500   -1.2990    0.0000 C   0  0  0  0  0  0  0  0  0  0  0  0
   -3.0000    0.0000    0.0000 C   0  0  0  0  0  0  0  0  0  0  0  0
   -4.5000    0.0000    0.0000 N   0  0  0  0  0  0  0  0  0  0  0  0
   -5.2500    1.2990    0.0000 C   0  0  0  0  0  0  0  0  0  0  0  0
   -6.7500    1.2990    0.0000 C   0  0  0  0  0  0  0  0  0  0  0  0
   -4.5000    2.5981    0.0000 O   0  0  0  0  0  0  0  0  0  0  0  0
   -2.2500    1.2990    0.0000 C   0  0  0  0  0  0  0  0  0  0  0  0
   -0.7500    1.2990    0.0000 C   0  0  0  0  0  0  0  0  0  0  0  0
    0.7500    1.2990    0.0000 C   0  0  0  0  0  0  0  0  0  0  0  0
   -1.5000    0.0000    0.0000 C   0  0  0  0  0  0  0  0  0  0  0  0
  1  2  2  0
  2  3  1  0
  3  4  1  0
  4  5  1  0
  5  6  2  0
  6  7  1  0
  7  8  1  0
  8  9  1  0
  8 10  2  0
  6 11  1  0
 11 12  1  0
 12 13  1  0
 12 14  1  0
 13  2  1  0
 14  4  1  0
M  END
>  <SMILES>  (6) 
C=C1CC2C=C(NC(C)=O)CC(C1)C2

>  <Formula>  (6) 
C12H17NO

>  <MW>  (6) 
191.274

>  <HeavyAtoms>  (6) 
14

>  <TotalAtoms>  (6) 
14

>  <FormalCharge>  (6) 
0

>  <CLogP>  (6) 
2.383

>  <MolarRefractivity>  (6) 
56.488

>  <SP3Fraction>  (6) 
0.58299999999999996

>  <TPSA>  (6) 
29.100000000000001

>  <LabuteASA>  (6) 
85.073999999999998

>  <RotatableBonds>  (6) 
1

>  <LHBD>  (6) 
1

>  <HBD>  (6) 
1

>  <LHBA>  (6) 
2

>  <HBA>  (6) 
1

>  <TotalRings>  (6) 
2

>  <AromaticRings>  (6) 
0

>  <AromaticCarboCycles>  (6) 
0

>  <AromaticHeteroCycles>  (6) 
0

>  <AliphaticRings>  (6) 
2

>  <AliphaticCarboCycles>  (6) 
2

>  <AliphaticHeteroCycles>  (6) 
0

>  <Bridgehead>  (6) 
2

>  <Spiro>  (6) 
0

>  <LipinskiR3>  (6) 
1

>  <LipinskiR5>  (6) 
1

>  <Ghose>  (6) 
0

>  <Veber>  (6) 
1

>  <REOS>  (6) 
0

>  <Drug-like>  (6) 
1

>  <QED_MaxWeight>  (6) 
0.64100000000000001

>  <QED_MeanWeight>  (6) 
0.63300000000000001

>  <QED_NoWeight>  (6) 
0.58599999999999997

>  <Reference_Name>  (6) 
CHEMBL25

>  <Reference_SMILES>  (6) 
CC(=O)Oc1ccccc1C(=O)O

>  <Reference_Molecule_SMILES>  (6) 
CC(=O)Oc1ccccc1C(=O)O

>  <Morgan_Tanimoto_Distance>  (6) 
0.76666666666666661

>  <CATS_Euclidean_Distance>  (6) 
35.397740040855716

>  <Gobbi_2Dphp_Tanimoto_Distance>  (6) 
0.97894736842105268

>  <2Dphp_Tanimoto_Distance>  (6) 
0.95348837209302328

>  <Synthetic_Accessibility>  (6) 
4.9129654804187766

$$$$
CHEMBL25-Var4015
     RDKit          2D

 13 14  0  0  0  0  0  0  0  0999 V2000
    3.5260    1.2990    0.0000 O   0  0  0  0  0  0  0  0  0  0  0  0
    2.7760    0.0000    0.0000 C   0  0  0  0  0  0  0  0  0  0  0  0
    3.5260   -1.2990    0.0000 O   0  0  0  0  0  0  0  0  0  0  0  0
    1.2760    0.0000    0.0000 C   0  0  0  0  0  0  0  0  0  0  0  0
    0.3943    1.2135    0.0000 C   0  0  0  0  0  0  0  0  0  0  0  0
   -1.0323    0.7500    0.0000 C   0  0  0  0  0  0  0  0  0  0  0  0
   -1.0323   -0.7500    0.0000 C   0  0  0  0  0  0  0  0  0  0  0  0
    0.3943   -1.2135    0.0000 C   0  0  0  0  0  0  0  0  0  0  0  0
   -1.0323   -1.6771    0.0000 C   0  0  0  0  0  0  0  0  0  0  0  0
   -1.4958   -3.1036    0.0000 C   0  0  0  0  0  0  0  0  0  0  0  0
   -0.4921   -4.2184    0.0000 O   0  0  0  0  0  0  0  0  0  0  0  0
   -2.9630   -3.4155    0.0000 O   0  0  0  0  0  0  0  0  0  0  0  0
   -1.9140   -0.4635    0.0000 N   0  0  0  0  0  0  0  0  0  0  0  0
  1  2  2  0
  2  3  1  0
  2  4  1  0
  4  5  1  0
  5  6  1  0
  6  7  1  0
  7  8  1  0
  8  9  1  0
  9 10  1  0
 10 11  2  0
 10 12  1  0
  9 13  1  0
  8  4  1  0
 13  6  1  0
M  END
>  <SMILES>  (7) 
O=C(O)C1CC2CC1C(C(=O)O)N2

>  <Formula>  (7) 
C8H11NO4

>  <MW>  (7) 
185.179

>  <HeavyAtoms>  (7) 
13

>  <TotalAtoms>  (7) 
13

>  <FormalCharge>  (7) 
0

>  <CLogP>  (7) 
-0.47799999999999998

>  <MolarRefractivity>  (7) 
42.197000000000003

>  <SP3Fraction>  (7) 
0.75

>  <TPSA>  (7) 
86.629999999999995

>  <LabuteASA>  (7) 
74.744

>  <RotatableBonds>  (7) 
2

>  <LHBD>  (7) 
3

>  <HBD>  (7) 
3

>  <LHBA>  (7) 
5

>  <HBA>  (7) 
3

>  <TotalRings>  (7) 
2

>  <AromaticRings>  (7) 
0

>  <AromaticCarboCycles>  (7) 
0

>  <AromaticHeteroCycles>  (7) 
0

>  <AliphaticRings>  (7) 
2

>  <AliphaticCarboCycles>  (7) 
1

>  <AliphaticHeteroCycles>  (7) 
1

>  <Bridgehead>  (7) 
2

>  <Spiro>  (7) 
0

>  <LipinskiR3>  (7) 
1

>  <LipinskiR5>  (7) 
1

>  <Ghose>  (7) 
0

>  <Veber>  (7) 
1

>  <REOS>  (7) 
0

>  <Drug-like>  (7) 
1

>  <QED_MaxWeight>  (7) 
0.56799999999999995

>  <QED_MeanWeight>  (7) 
0.54100000000000004

>  <QED_NoWeight>  (7) 
0.55800000000000005

>  <Reference_Name>  (7) 
CHEMBL25

>  <Reference_SMILES>  (7) 
CC(=O)Oc1ccccc1C(=O)O

>  <Reference_Molecule_SMILES>  (7) 
CC(=O)Oc1ccccc1C(=O)O

>  <Morgan_Tanimoto_Distance>  (7) 
0.84615384615384615

>  <CATS_Euclidean_Distance>  (7) 
38.535697735995385

>  <Gobbi_2Dphp_Tanimoto_Distance>  (7) 
0.984375

>  <2Dphp_Tanimoto_Distance>  (7) 
0.82608695652173914

>  <Synthetic_Accessibility>  (7) 
4.8846575372727372

$$$$
CHEMBL25-Var3128
     RDKit          2D

 14 16  0  0  0  0  0  0  0  0999 V2000
    1.5000   -2.5981    0.0000 N   0  0  0  0  0  0  0  0  0  0  0  0
    0.7500   -1.2990    0.0000 C   0  0  0  0  0  0  0  0  0  0  0  0
    1.5000    0.0000    0.0000 C   0  0  0  0  0  0  0  0  0  0  0  0
    0.7500    1.2990    0.0000 C   0  0  0  0  0  0  0  0  0  0  0  0
   -0.7500    1.2990    0.0000 C   0  0  0  0  0  0  0  0  0  0  0  0
   -1.5000    0.0000    0.0000 C   0  0  0  0  0  0  0  0  0  0  0  0
   -0.7500   -1.2990    0.0000 C   0  0  0  0  0  0  0  0  0  0  0  0
    1.7010   -0.7500    0.0000 C   0  0  0  0  0  0  0  0  0  0  0  0
    3.0000   -0.0000    0.0000 C   0  0  0  0  0  0  0  0  0  0  0  0
    4.5000   -0.0000    0.0000 C   0  0  0  0  0  0  0  0  0  0  0  0
    5.2500    1.2990    0.0000 O   0  0  0  0  0  0  0  0  0  0  0  0
    5.2500   -1.2990    0.0000 O   0  0  0  0  0  0  0  0  0  0  0  0
    2.2500    1.2990    0.0000 C   0  0  0  0  0  0  0  0  0  0  0  0
    2.2500   -1.2990    0.0000 C   0  0  0  0  0  0  0  0  0  0  0  0
  1  2  1  0
  2  3  1  0
  3  4  1  0
  4  5  1  0
  5  6  1  0
  6  7  1  0
  6  8  1  0
  8  9  1  0
  9 10  1  0
 10 11  2  0
 10 12  1  0
  9 13  1  0
  9 14  1  0
  7  2  1  0
 14  2  1  0
 13  4  1  0
M  END
>  <SMILES>  (8) 
NC12CC3CC(C1)CC(C(=O)O)(C3)C2

>  <Formula>  (8) 
C11H17NO2

>  <MW>  (8) 
195.262

>  <HeavyAtoms>  (8) 
14

>  <TotalAtoms>  (8) 
14

>  <FormalCharge>  (8) 
0

>  <CLogP>  (8) 
1.369

>  <MolarRefractivity>  (8) 
51.668999999999997

>  <SP3Fraction>  (8) 
0.90900000000000003

>  <TPSA>  (8) 
63.32

>  <LabuteASA>  (8) 
83.667000000000002

>  <RotatableBonds>  (8) 
1

>  <LHBD>  (8) 
3

>  <HBD>  (8) 
2

>  <LHBA>  (8) 
3

>  <HBA>  (8) 
2

>  <TotalRings>  (8) 
4

>  <AromaticRings>  (8) 
0

>  <AromaticCarboCycles>  (8) 
0

>  <AromaticHeteroCycles>  (8) 
0

>  <AliphaticRings>  (8) 
4

>  <AliphaticCarboCycles>  (8) 
4

>  <AliphaticHeteroCycles>  (8) 
0

>  <Bridgehead>  (8) 
4

>  <Spiro>  (8) 
0

>  <LipinskiR3>  (8) 
1

>  <LipinskiR5>  (8) 
1

>  <Ghose>  (8) 
0

>  <Veber>  (8) 
1

>  <REOS>  (8) 
0

>  <Drug-like>  (8) 
1

>  <QED_MaxWeight>  (8) 
0.67600000000000005

>  <QED_MeanWeight>  (8) 
0.66400000000000003

>  <QED_NoWeight>  (8) 
0.71599999999999997

>  <Reference_Name>  (8) 
CHEMBL25

>  <Reference_SMILES>  (8) 
CC(=O)Oc1ccccc1C(=O)O

>  <Reference_Molecule_SMILES>  (8) 
CC(=O)Oc1ccccc1C(=O)O

>  <Morgan_Tanimoto_Distance>  (8) 
0.85714285714285721

>  <CATS_Euclidean_Distance>  (8) 
35.944401511222857

>  <Gobbi_2Dphp_Tanimoto_Distance>  (8) 
0.99444444444444446

>  <2Dphp_Tanimoto_Distance>  (8) 
0.84745762711864403

>  <Synthetic_Accessibility>  (8) 
4.7919217372840288

$$$$
CHEMBL25-Var3998
     RDKit          2D

 15 17  0  0  0  0  0  0  0  0999 V2000
   -5.6292   -0.7500    0.0000 O   0  0  0  0  0  0  0  0  0  0  0  0
   -4.3301   -1.5000    0.0000 C   0  0  0  0  0  0  0  0  0  0  0  0
   -4.3301   -3.0000    0.0000 O   0  0  0  0  0  0  0  0  0  0  0  0
   -1.7825   -0.6782    0.0000 C   0  0  0  0  0  0  0  0  0  0  0  0
   -1.7321   -1.5000    0.0000 C   0  0  0  0  0  0  0  0  0  0  0  0
   -3.0311   -0.7500    0.0000 C   0  0  0  0  0  0  0  0  0  0  0  0
   -3.0311    0.7500    0.0000 C   0  0  0  0  0  0  0  0  0  0  0  0
   -1.7321    1.5000    0.0000 C   0  0  0  0  0  0  0  0  0  0  0  0
   -0.4330    0.7500    0.0000 C   0  0  0  0  0  0  0  0  0  0  0  0
    0.8660    0.0000    0.0000 C   0  0  0  0  0  0  0  0  0  0  0  0
   -0.4330   -0.7500    0.0000 C   0  0  0  0  0  0  0  0  0  0  0  0
   -1.7825    0.6782    0.0000 C   0  0  0  0  0  0  0  0  0  0  0  0
   -4.3301    1.5000    0.0000 C   0  0  0  0  0  0  0  0  0  0  0  0
   -5.6292    0.7500    0.0000 O   0  0  0  0  0  0  0  0  0  0  0  0
   -4.3301    3.0000    0.0000 O   0  0  0  0  0  0  0  0  0  0  0  0
  1  2  2  0
  2  3  1  0
  2  4  1  0
  4  5  1  0
  5  6  1  0
  6  7  2  0
  7  8  1  0
  8  9  1  0
  9 10  1  0
 10 11  1  0
  8 12  1  0
 12 13  1  0
 13 14  2  0
 13 15  1  0
 12  4  1  0
 11  5  1  0
 11  9  1  0
M  END
>  <SMILES>  (9) 
O=C(O)C1C2C=CC(C3CC23)C1C(=O)O

>  <Formula>  (9) 
C11H12O4

>  <MW>  (9) 
208.21299999999999

>  <HeavyAtoms>  (9) 
15

>  <TotalAtoms>  (9) 
15

>  <FormalCharge>  (9) 
0

>  <CLogP>  (9) 
0.83999999999999997

>  <MolarRefractivity>  (9) 
49.969000000000001

>  <SP3Fraction>  (9) 
0.63600000000000001

>  <TPSA>  (9) 
74.599999999999994

>  <LabuteASA>  (9) 
86.593000000000004

>  <RotatableBonds>  (9) 
2

>  <LHBD>  (9) 
2

>  <HBD>  (9) 
2

>  <LHBA>  (9) 
4

>  <HBA>  (9) 
2

>  <TotalRings>  (9) 
4

>  <AromaticRings>  (9) 
0

>  <AromaticCarboCycles>  (9) 
0

>  <AromaticHeteroCycles>  (9) 
0

>  <AliphaticRings>  (9) 
4

>  <AliphaticCarboCycles>  (9) 
4

>  <AliphaticHeteroCycles>  (9) 
0

>  <Bridgehead>  (9) 
2

>  <Spiro>  (9) 
0

>  <LipinskiR3>  (9) 
1

>  <LipinskiR5>  (9) 
1

>  <Ghose>  (9) 
0

>  <Veber>  (9) 
1

>  <REOS>  (9) 
1

>  <Drug-like>  (9) 
1

>  <QED_MaxWeight>  (9) 
0.66000000000000003

>  <QED_MeanWeight>  (9) 
0.65900000000000003

>  <QED_NoWeight>  (9) 
0.70599999999999996

>  <Reference_Name>  (9) 
CHEMBL25

>  <Reference_SMILES>  (9) 
CC(=O)Oc1ccccc1C(=O)O

>  <Reference_Molecule_SMILES>  (9) 
CC(=O)Oc1ccccc1C(=O)O

>  <Morgan_Tanimoto_Distance>  (9) 
0.79166666666666663

>  <CATS_Euclidean_Distance>  (9) 
51.749396131742444

>  <Gobbi_2Dphp_Tanimoto_Distance>  (9) 
0.99516908212560384

>  <2Dphp_Tanimoto_Distance>  (9) 
0.80000000000000004

>  <Synthetic_Accessibility>  (9) 
4.7905632117000376

$$$$
CHEMBL25-Var2665
     RDKit          2D

 11 13  0  0  0  0  0  0  0  0999 V2000
    1.4510    5.0870    0.0000 O   0  0  0  0  0  0  0  0  0  0  0  0
    1.6078    3.5952    0.0000 C   0  0  0  0  0  0  0  0  0  0  0  0
    2.9781    2.9851    0.0000 O   0  0  0  0  0  0  0  0  0  0  0  0
    0.3943    2.7135    0.0000 C   0  0  0  0  0  0  0  0  0  0  0  0
    0.3943    1.2135    0.0000 C   0  0  0  0  0  0  0  0  0  0  0  0
    1.2760    0.0000    0.0000 C   0  0  0  0  0  0  0  0  0  0  0  0
    0.3943   -1.2135    0.0000 C   0  0  0  0  0  0  0  0  0  0  0  0
   -1.0323   -0.7500    0.0000 C   0  0  0  0  0  0  0  0  0  0  0  0
   -1.0323    0.7500    0.0000 C   0  0  0  0  0  0  0  0  0  0  0  0
   -1.9140    1.9635    0.0000 C   0  0  0  0  0  0  0  0  0  0  0  0
   -1.0323    3.1771    0.0000 C   0  0  0  0  0  0  0  0  0  0  0  0
  1  2  2  0
  2  3  1  0
  2  4  1  0
  4  5  1  0
  5  6  1  0
  6  7  1  0
  7  8  1  0
  8  9  1  0
  9 10  1  0
 10 11  1  0
 11  4  1  0
  9  5  1  0
 11  7  1  0
M  END
>  <SMILES>  (10) 
O=C(O)C1C2CC3CC2CC31

>  <Formula>  (10) 
C9H12O2

>  <MW>  (10) 
152.19300000000001

>  <HeavyAtoms>  (10) 
11

>  <TotalAtoms>  (10) 
11

>  <FormalCharge>  (10) 
0

>  <CLogP>  (10) 
1.363

>  <MolarRefractivity>  (10) 
38.936999999999998

>  <SP3Fraction>  (10) 
0.88900000000000001

>  <TPSA>  (10) 
37.299999999999997

>  <LabuteASA>  (10) 
65.596999999999994

>  <RotatableBonds>  (10) 
1

>  <LHBD>  (10) 
1

>  <HBD>  (10) 
1

>  <LHBA>  (10) 
2

>  <HBA>  (10) 
1

>  <TotalRings>  (10) 
4

>  <AromaticRings>  (10) 
0

>  <AromaticCarboCycles>  (10) 
0

>  <AromaticHeteroCycles>  (10) 
0

>  <AliphaticRings>  (10) 
4

>  <AliphaticCarboCycles>  (10) 
4

>  <AliphaticHeteroCycles>  (10) 
0

>  <Bridgehead>  (10) 
4

>  <Spiro>  (10) 
0

>  <LipinskiR3>  (10) 
1

>  <LipinskiR5>  (10) 
1

>  <Ghose>  (10) 
0

>  <Veber>  (10) 
1

>  <REOS>  (10) 
0

>  <Drug-like>  (10) 
1

>  <QED_MaxWeight>  (10) 
0.63

>  <QED_MeanWeight>  (10) 
0.61599999999999999

>  <QED_NoWeight>  (10) 
0.67000000000000004

>  <Reference_Name>  (10) 
CHEMBL25

>  <Reference_SMILES>  (10) 
CC(=O)Oc1ccccc1C(=O)O

>  <Reference_Molecule_SMILES>  (10) 
CC(=O)Oc1ccccc1C(=O)O

>  <Morgan_Tanimoto_Distance>  (10) 
0.82608695652173914

>  <CATS_Euclidean_Distance>  (10) 
40.422765862815474

>  <Gobbi_2Dphp_Tanimoto_Distance>  (10) 
0.99173553719008267

>  <2Dphp_Tanimoto_Distance>  (10) 
0.85416666666666663

>  <Synthetic_Accessibility>  (10) 
4.779551018279852

$$$$
CHEMBL25-Var48
     RDKit          2D

 12 13  0  0  0  0  0  0  0  0999 V2000
   -6.4140    3.0616    0.0000 C   0  0  0  0  0  0  0  0  0  0  0  0
   -5.6640    1.7626    0.0000 C   0  0  0  0  0  0  0  0  0  0  0  0
   -6.4140    0.4635    0.0000 O   0  0  0  0  0  0  0  0  0  0  0  0
   -4.1640    1.7626    0.0000 C   0  0  0  0  0  0  0  0  0  0  0  0
   -3.4140    0.4635    0.0000 C   0  0  0  0  0  0  0  0  0  0  0  0
   -1.9140    0.4635    0.0000 C   0  0  0  0  0  0  0  0  0  0  0  0
   -1.0323    1.6771    0.0000 C   0  0  0  0  0  0  0  0  0  0  0  0
    0.3943    1.2135    0.0000 C   0  0  0  0  0  0  0  0  0  0  0  0
    1.2760    0.0000    0.0000 C   0  0  0  0  0  0  0  0  0  0  0  0
    0.3943   -1.2135    0.0000 C   0  0  0  0  0  0  0  0  0  0  0  0
   -1.0323   -0.7500    0.0000 C   0  0  0  0  0  0  0  0  0  0  0  0
   -1.0323    0.7500    0.0000 C   0  0  0  0  0  0  0  0  0  0  0  0
  1  2  1  0
  2  3  2  0
  2  4  1  0
  4  5  2  3
  5  6  1  0
  6  7  1  0
  7  8  1  0
  8  9  1  0
  9 10  2  0
 10 11  1  0
 11 12  1  0
 11  6  1  0
 12  8  1  0
M  END
>  <SMILES>  (11) 
CC(=O)C=CC1CC2C=CC1C2

>  <Formula>  (11) 
C11H14O

>  <MW>  (11) 
162.232

>  <HeavyAtoms>  (11) 
12

>  <TotalAtoms>  (11) 
12

>  <FormalCharge>  (11) 
0

>  <CLogP>  (11) 
2.3439999999999999

>  <MolarRefractivity>  (11) 
48.664999999999999

>  <SP3Fraction>  (11) 
0.54500000000000004

>  <TPSA>  (11) 
17.07

>  <LabuteASA>  (11) 
73.159000000000006

>  <RotatableBonds>  (11) 
2

>  <LHBD>  (11) 
0

>  <HBD>  (11) 
0

>  <LHBA>  (11) 
1

>  <HBA>  (11) 
1

>  <TotalRings>  (11) 
2

>  <AromaticRings>  (11) 
0

>  <AromaticCarboCycles>  (11) 
0

>  <AromaticHeteroCycles>  (11) 
0

>  <AliphaticRings>  (11) 
2

>  <AliphaticCarboCycles>  (11) 
2

>  <AliphaticHeteroCycles>  (11) 
0

>  <Bridgehead>  (11) 
2

>  <Spiro>  (11) 
0

>  <LipinskiR3>  (11) 
1

>  <LipinskiR5>  (11) 
1

>  <Ghose>  (11) 
0

>  <Veber>  (11) 
1

>  <REOS>  (11) 
0

>  <Drug-like>  (11) 
1

>  <QED_MaxWeight>  (11) 
0.41699999999999998

>  <QED_MeanWeight>  (11) 
0.45000000000000001

>  <QED_NoWeight>  (11) 
0.45700000000000002

>  <Reference_Name>  (11) 
CHEMBL25

>  <Reference_SMILES>  (11) 
CC(=O)Oc1ccccc1C(=O)O

>  <Reference_Molecule_SMILES>  (11) 
CC(=O)Oc1ccccc1C(=O)O

>  <Morgan_Tanimoto_Distance>  (11) 
0.77777777777777779

>  <CATS_Euclidean_Distance>  (11) 
36.110940170535578

>  <Gobbi_2Dphp_Tanimoto_Distance>  (11) 
1

>  <2Dphp_Tanimoto_Distance>  (11) 
0.97777777777777775

>  <Synthetic_Accessibility>  (11) 
4.7754124269760432

$$$$
CHEMBL25-Var3140
     RDKit          2D

 11 12  0  0  0  0  0  0  0  0999 V2000
   -1.4958    3.1036    0.0000 N   0  0  0  0  0  0  0  0  0  0  0  0
   -1.0323    1.6771    0.0000 C   0  0  0  0  0  0  0  0  0  0  0  0
    0.3943    1.2135    0.0000 C   0  0  0  0  0  0  0  0  0  0  0  0
    1.2760    0.0000    0.0000 C   0  0  0  0  0  0  0  0  0  0  0  0
    0.3943   -1.2135    0.0000 C   0  0  0  0  0  0  0  0  0  0  0  0
   -1.0323   -0.7500    0.0000 C   0  0  0  0  0  0  0  0  0  0  0  0
   -1.0323    0.7500    0.0000 C   0  0  0  0  0  0  0  0  0  0  0  0
   -1.9140    0.4635    0.0000 C   0  0  0  0  0  0  0  0  0  0  0  0
   -3.4140    0.4635    0.0000 C   0  0  0  0  0  0  0  0  0  0  0  0
   -4.1640   -0.8355    0.0000 O   0  0  0  0  0  0  0  0  0  0  0  0
   -4.1640    1.7626    0.0000 O   0  0  0  0  0  0  0  0  0  0  0  0
  1  2  1  0
  2  3  1  0
  3  4  1  0
  4  5  2  0
  5  6  1  0
  6  7  1  0
  6  8  1  0
  8  9  1  0
  9 10  2  0
  9 11  1  0
  8  2  1  0
  7  3  1  0
M  END
>  <SMILES>  (12) 
NC1C2C=CC(C2)C1C(=O)O

>  <Formula>  (12) 
C8H11NO2

>  <MW>  (12) 
153.18100000000001

>  <HeavyAtoms>  (12) 
11

>  <TotalAtoms>  (12) 
11

>  <FormalCharge>  (12) 
0

>  <CLogP>  (12) 
0.22

>  <MolarRefractivity>  (12) 
39.838000000000001

>  <SP3Fraction>  (12) 
0.625

>  <TPSA>  (12) 
63.32

>  <LabuteASA>  (12) 
64.888000000000005

>  <RotatableBonds>  (12) 
1

>  <LHBD>  (12) 
3

>  <HBD>  (12) 
2

>  <LHBA>  (12) 
3

>  <HBA>  (12) 
2

>  <TotalRings>  (12) 
2

>  <AromaticRings>  (12) 
0

>  <AromaticCarboCycles>  (12) 
0

>  <AromaticHeteroCycles>  (12) 
0

>  <AliphaticRings>  (12) 
2

>  <AliphaticCarboCycles>  (12) 
2

>  <AliphaticHeteroCycles>  (12) 
0

>  <Bridgehead>  (12) 
2

>  <Spiro>  (12) 
0

>  <LipinskiR3>  (12) 
1

>  <LipinskiR5>  (12) 
1

>  <Ghose>  (12) 
0

>  <Veber>  (12) 
1

>  <REOS>  (12) 
0

>  <Drug-like>  (12) 
1

>  <QED_MaxWeight>  (12) 
0.53500000000000003

>  <QED_MeanWeight>  (12) 
0.53000000000000003

>  <QED_NoWeight>  (12) 
0.60399999999999998

>  <Reference_Name>  (12) 
CHEMBL25

>  <Reference_SMILES>  (12) 
CC(=O)Oc1ccccc1C(=O)O

>  <Reference_Molecule_SMILES>  (12) 
CC(=O)Oc1ccccc1C(=O)O

>  <Morgan_Tanimoto_Distance>  (12) 
0.80769230769230771

>  <CATS_Euclidean_Distance>  (12) 
37.841775856849004

>  <Gobbi_2Dphp_Tanimoto_Distance>  (12) 
0.97023809523809523

>  <2Dphp_Tanimoto_Distance>  (12) 
0.87301587301587302

>  <Synthetic_Accessibility>  (12) 
4.7602343872974044

$$$$
CHEMBL25-Var3990
     RDKit          2D

 14 15  0  0  0  0  0  0  0  0999 V2000
   -1.2902    3.3980    0.0000 O   0  0  0  0  0  0  0  0  0  0  0  0
   -2.7168    2.9344    0.0000 C   0  0  0  0  0  0  0  0  0  0  0  0
   -3.8315    3.9381    0.0000 O   0  0  0  0  0  0  0  0  0  0  0  0
   -3.0287    1.4672    0.0000 C   0  0  0  0  0  0  0  0  0  0  0  0
   -1.9140    0.4635    0.0000 C   0  0  0  0  0  0  0  0  0  0  0  0
   -3.0287   -0.5402    0.0000 C   0  0  0  0  0  0  0  0  0  0  0  0
   -2.7168   -2.0074    0.0000 O   0  0  0  0  0  0  0  0  0  0  0  0
   -4.4553   -0.0766    0.0000 O   0  0  0  0  0  0  0  0  0  0  0  0
   -1.0323    1.6771    0.0000 C   0  0  0  0  0  0  0  0  0  0  0  0
    0.3943    1.2135    0.0000 C   0  0  0  0  0  0  0  0  0  0  0  0
    1.2760    0.0000    0.0000 C   0  0  0  0  0  0  0  0  0  0  0  0
    0.3943   -1.2135    0.0000 C   0  0  0  0  0  0  0  0  0  0  0  0
   -1.0323   -0.7500    0.0000 C   0  0  0  0  0  0  0  0  0  0  0  0
   -1.0323    0.7500    0.0000 C   0  0  0  0  0  0  0  0  0  0  0  0
  1  2  2  0
  2  3  1  0
  2  4  1  0
  4  5  1  0
  5  6  1  0
  6  7  2  0
  6  8  1  0
  5  9  1  0
  9 10  1  0
 10 11  1  0
 11 12  2  0
 12 13  1  0
 13 14  1  0
 13  5  1  0
 14 10  1  0
M  END
>  <SMILES>  (13) 
O=C(O)CC1(C(=O)O)CC2C=CC1C2

>  <Formula>  (13) 
C10H12O4

>  <MW>  (13) 
196.202

>  <HeavyAtoms>  (13) 
14

>  <TotalAtoms>  (13) 
14

>  <FormalCharge>  (13) 
0

>  <CLogP>  (13) 
1.1279999999999999

>  <MolarRefractivity>  (13) 
47.676000000000002

>  <SP3Fraction>  (13) 
0.59999999999999998

>  <TPSA>  (13) 
74.599999999999994

>  <LabuteASA>  (13) 
81.233999999999995

>  <RotatableBonds>  (13) 
3

>  <LHBD>  (13) 
2

>  <HBD>  (13) 
2

>  <LHBA>  (13) 
4

>  <HBA>  (13) 
2

>  <TotalRings>  (13) 
2

>  <AromaticRings>  (13) 
0

>  <AromaticCarboCycles>  (13) 
0

>  <AromaticHeteroCycles>  (13) 
0

>  <AliphaticRings>  (13) 
2

>  <AliphaticCarboCycles>  (13) 
2

>  <AliphaticHeteroCycles>  (13) 
0

>  <Bridgehead>  (13) 
2

>  <Spiro>  (13) 
0

>  <LipinskiR3>  (13) 
1

>  <LipinskiR5>  (13) 
1

>  <Ghose>  (13) 
0

>  <Veber>  (13) 
1

>  <REOS>  (13) 
0

>  <Drug-like>  (13) 
1

>  <QED_MaxWeight>  (13) 
0.66200000000000003

>  <QED_MeanWeight>  (13) 
0.66300000000000003

>  <QED_NoWeight>  (13) 
0.71199999999999997

>  <Reference_Name>  (13) 
CHEMBL25

>  <Reference_SMILES>  (13) 
CC(=O)Oc1ccccc1C(=O)O

>  <Reference_Molecule_SMILES>  (13) 
CC(=O)Oc1ccccc1C(=O)O

>  <Morgan_Tanimoto_Distance>  (13) 
0.82758620689655171

>  <CATS_Euclidean_Distance>  (13) 
37.509998667022103

>  <Gobbi_2Dphp_Tanimoto_Distance>  (13) 
0.9910714285714286

>  <2Dphp_Tanimoto_Distance>  (13) 
0.79452054794520555

>  <Synthetic_Accessibility>  (13) 
4.734148950664963

$$$$
CHEMBL25-Var3723
     RDKit          2D

 12 13  0  0  0  0  0  0  0  0999 V2000
    3.5260    1.2990    0.0000 O   0  0  0  0  0  0  0  0  0  0  0  0
    2.7760    0.0000    0.0000 C   0  0  0  0  0  0  0  0  0  0  0  0
    3.5260   -1.2990    0.0000 O   0  0  0  0  0  0  0  0  0  0  0  0
    1.2760    0.0000    0.0000 C   0  0  0  0  0  0  0  0  0  0  0  0
    0.3943    1.2135    0.0000 N   0  0  0  0  0  0  0  0  0  0  0  0
   -1.0323    0.7500    0.0000 C   0  0  0  0  0  0  0  0  0  0  0  0
   -1.0323   -0.7500    0.0000 C   0  0  0  0  0  0  0  0  0  0  0  0
   -1.9140   -1.9635    0.0000 O   0  0  0  0  0  0  0  0  0  0  0  0
   -1.0323   -3.1771    0.0000 N   0  0  0  0  0  0  0  0  0  0  0  0
    0.3943   -2.7135    0.0000 C   0  0  0  0  0  0  0  0  0  0  0  0
    1.6078   -3.5952    0.0000 O   0  0  0  0  0  0  0  0  0  0  0  0
    0.3943   -1.2135    0.0000 C   0  0  0  0  0  0  0  0  0  0  0  0
  1  2  2  0
  2  3  1  0
  2  4  1  0
  4  5  1  0
  5  6  1  0
  6  7  1  0
  7  8  1  0
  8  9  1  0
  9 10  1  0
 10 11  2  0
 10 12  1  0
 12  4  1  0
 12  7  1  0
M  END
>  <SMILES>  (14) 
O=C(O)C1NCC2ONC(=O)C21

>  <Formula>  (14) 
C6H8N2O4

>  <MW>  (14) 
172.13999999999999

>  <HeavyAtoms>  (14) 
12

>  <TotalAtoms>  (14) 
12

>  <FormalCharge>  (14) 
0

>  <CLogP>  (14) 
-1.911

>  <MolarRefractivity>  (14) 
35.932000000000002

>  <SP3Fraction>  (14) 
0.66700000000000004

>  <TPSA>  (14) 
87.659999999999997

>  <LabuteASA>  (14) 
67.837000000000003

>  <RotatableBonds>  (14) 
1

>  <LHBD>  (14) 
3

>  <HBD>  (14) 
3

>  <LHBA>  (14) 
6

>  <HBA>  (14) 
4

>  <TotalRings>  (14) 
2

>  <AromaticRings>  (14) 
0

>  <AromaticCarboCycles>  (14) 
0

>  <AromaticHeteroCycles>  (14) 
0

>  <AliphaticRings>  (14) 
2

>  <AliphaticCarboCycles>  (14) 
0

>  <AliphaticHeteroCycles>  (14) 
2

>  <Bridgehead>  (14) 
0

>  <Spiro>  (14) 
0

>  <LipinskiR3>  (14) 
1

>  <LipinskiR5>  (14) 
1

>  <Ghose>  (14) 
0

>  <Veber>  (14) 
1

>  <REOS>  (14) 
0

>  <Drug-like>  (14) 
1

>  <QED_MaxWeight>  (14) 
0.47099999999999997

>  <QED_MeanWeight>  (14) 
0.42899999999999999

>  <QED_NoWeight>  (14) 
0.44700000000000001

>  <Reference_Name>  (14) 
CHEMBL25

>  <Reference_SMILES>  (14) 
CC(=O)Oc1ccccc1C(=O)O

>  <Reference_Molecule_SMILES>  (14) 
CC(=O)Oc1ccccc1C(=O)O

>  <Morgan_Tanimoto_Distance>  (14) 
0.83333333333333337

>  <CATS_Euclidean_Distance>  (14) 
40.718546143004666

>  <Gobbi_2Dphp_Tanimoto_Distance>  (14) 
0.976303317535545

>  <2Dphp_Tanimoto_Distance>  (14) 
0.80821917808219179

>  <Synthetic_Accessibility>  (14) 
4.7187798710787217

$$$$
CHEMBL25-Var1490
     RDKit          2D

 12 13  0  0  0  0  0  0  0  0999 V2000
   -0.4921    4.2184    0.0000 C   0  0  0  0  0  0  0  0  0  0  0  0
   -1.4958    3.1036    0.0000 N   0  0  0  0  0  0  0  0  0  0  0  0
   -1.0323    1.6771    0.0000 C   0  0  0  0  0  0  0  0  0  0  0  0
    0.3943    1.2135    0.0000 C   0  0  0  0  0  0  0  0  0  0  0  0
    1.2760    0.0000    0.0000 C   0  0  0  0  0  0  0  0  0  0  0  0
    0.3943   -1.2135    0.0000 C   0  0  0  0  0  0  0  0  0  0  0  0
   -1.0323   -0.7500    0.0000 C   0  0  0  0  0  0  0  0  0  0  0  0
   -1.0323    0.7500    0.0000 C   0  0  0  0  0  0  0  0  0  0  0  0
   -1.9140    0.4635    0.0000 C   0  0  0  0  0  0  0  0  0  0  0  0
   -3.4140    0.4635    0.0000 C   0  0  0  0  0  0  0  0  0  0  0  0
   -4.1640   -0.8355    0.0000 O   0  0  0  0  0  0  0  0  0  0  0  0
   -4.1640    1.7626    0.0000 O   0  0  0  0  0  0  0  0  0  0  0  0
  1  2  1  0
  2  3  1  0
  3  4  1  0
  4  5  1  0
  5  6  2  0
  6  7  1  0
  7  8  1  0
  7  9  1  0
  9 10  1  0
 10 11  2  0
 10 12  1  0
  9  3  1  0
  8  4  1  0
M  END
>  <SMILES>  (15) 
CNC1C2C=CC(C2)C1C(=O)O

>  <Formula>  (15) 
C9H13NO2

>  <MW>  (15) 
167.208

>  <HeavyAtoms>  (15) 
12

>  <TotalAtoms>  (15) 
12

>  <FormalCharge>  (15) 
0

>  <CLogP>  (15) 
0.48099999999999998

>  <MolarRefractivity>  (15) 
44.710999999999999

>  <SP3Fraction>  (15) 
0.66700000000000004

>  <TPSA>  (15) 
49.329999999999998

>  <LabuteASA>  (15) 
71.462999999999994

>  <RotatableBonds>  (15) 
2

>  <LHBD>  (15) 
2

>  <HBD>  (15) 
2

>  <LHBA>  (15) 
3

>  <HBA>  (15) 
2

>  <TotalRings>  (15) 
2

>  <AromaticRings>  (15) 
0

>  <AromaticCarboCycles>  (15) 
0

>  <AromaticHeteroCycles>  (15) 
0

>  <AliphaticRings>  (15) 
2

>  <AliphaticCarboCycles>  (15) 
2

>  <AliphaticHeteroCycles>  (15) 
0

>  <Bridgehead>  (15) 
2

>  <Spiro>  (15) 
0

>  <LipinskiR3>  (15) 
1

>  <LipinskiR5>  (15) 
1

>  <Ghose>  (15) 
0

>  <Veber>  (15) 
1

>  <REOS>  (15) 
0

>  <Drug-like>  (15) 
1

>  <QED_MaxWeight>  (15) 
0.59099999999999997

>  <QED_MeanWeight>  (15) 
0.58799999999999997

>  <QED_NoWeight>  (15) 
0.65900000000000003

>  <Reference_Name>  (15) 
CHEMBL25

>  <Reference_SMILES>  (15) 
CC(=O)Oc1ccccc1C(=O)O

>  <Reference_Molecule_SMILES>  (15) 
CC(=O)Oc1ccccc1C(=O)O

>  <Morgan_Tanimoto_Distance>  (15) 
0.77777777777777779

>  <CATS_Euclidean_Distance>  (15) 
37.215588131856791

>  <Gobbi_2Dphp_Tanimoto_Distance>  (15) 
0.97023809523809523

>  <2Dphp_Tanimoto_Distance>  (15) 
0.87301587301587302

>  <Synthetic_Accessibility>  (15) 
4.7040665214989215

$$$$
CHEMBL25-Var1743
     RDKit          2D

 14 15  0  0  0  0  0  0  0  0999 V2000
   -3.4140    0.4635    0.0000 C   0  0  0  0  0  0  0  0  0  0  0  0
   -1.9140    0.4635    0.0000 C   0  0  0  0  0  0  0  0  0  0  0  0
   -1.0323    1.6771    0.0000 C   0  0  0  0  0  0  0  0  0  0  0  0
   -1.4958    3.1036    0.0000 O   0  0  0  0  0  0  0  0  0  0  0  0
    0.3943    1.2135    0.0000 C   0  0  0  0  0  0  0  0  0  0  0  0
    0.8578    2.6401    0.0000 C   0  0  0  0  0  0  0  0  0  0  0  0
   -0.1459    3.7548    0.0000 O   0  0  0  0  0  0  0  0  0  0  0  0
    2.3250    2.9520    0.0000 O   0  0  0  0  0  0  0  0  0  0  0  0
    1.2760    0.0000    0.0000 C   0  0  0  0  0  0  0  0  0  0  0  0
    0.3943   -1.2135    0.0000 C   0  0  0  0  0  0  0  0  0  0  0  0
   -1.0323   -0.7500    0.0000 C   0  0  0  0  0  0  0  0  0  0  0  0
   -1.0323    0.7500    0.0000 C   0  0  0  0  0  0  0  0  0  0  0  0
   -2.5177    0.9588    0.0000 C   0  0  0  0  0  0  0  0  0  0  0  0
   -1.6899    2.0982    0.0000 C   0  0  0  0  0  0  0  0  0  0  0  0
  1  2  2  0
  2  3  1  0
  3  4  2  0
  3  5  1  0
  5  6  1  0
  6  7  2  0
  6  8  1  0
  5  9  1  0
  9 10  1  0
 10 11  1  0
 11 12  1  0
 12 13  1  0
 12 14  1  0
 11  2  1  0
 12  5  1  0
M  END
>  <SMILES>  (16) 
C=C1C(=O)C2(C(=O)O)CCC1C2(C)C

>  <Formula>  (16) 
C11H14O3

>  <MW>  (16) 
194.22999999999999

>  <HeavyAtoms>  (16) 
14

>  <TotalAtoms>  (16) 
14

>  <FormalCharge>  (16) 
0

>  <CLogP>  (16) 
1.6319999999999999

>  <MolarRefractivity>  (16) 
50.720999999999997

>  <SP3Fraction>  (16) 
0.63600000000000001

>  <TPSA>  (16) 
54.369999999999997

>  <LabuteASA>  (16) 
82.805000000000007

>  <RotatableBonds>  (16) 
1

>  <LHBD>  (16) 
1

>  <HBD>  (16) 
1

>  <LHBA>  (16) 
3

>  <HBA>  (16) 
2

>  <TotalRings>  (16) 
2

>  <AromaticRings>  (16) 
0

>  <AromaticCarboCycles>  (16) 
0

>  <AromaticHeteroCycles>  (16) 
0

>  <AliphaticRings>  (16) 
2

>  <AliphaticCarboCycles>  (16) 
2

>  <AliphaticHeteroCycles>  (16) 
0

>  <Bridgehead>  (16) 
2

>  <Spiro>  (16) 
0

>  <LipinskiR3>  (16) 
1

>  <LipinskiR5>  (16) 
1

>  <Ghose>  (16) 
0

>  <Veber>  (16) 
1

>  <REOS>  (16) 
0

>  <Drug-like>  (16) 
1

>  <QED_MaxWeight>  (16) 
0.46300000000000002

>  <QED_MeanWeight>  (16) 
0.51000000000000001

>  <QED_NoWeight>  (16) 
0.63500000000000001

>  <Reference_Name>  (16) 
CHEMBL25

>  <Reference_SMILES>  (16) 
CC(=O)Oc1ccccc1C(=O)O

>  <Reference_Molecule_SMILES>  (16) 
CC(=O)Oc1ccccc1C(=O)O

>  <Morgan_Tanimoto_Distance>  (16) 
0.80645161290322576

>  <CATS_Euclidean_Distance>  (16) 
34.452866353904433

>  <Gobbi_2Dphp_Tanimoto_Distance>  (16) 
0.86486486486486491

>  <2Dphp_Tanimoto_Distance>  (16) 
0.77083333333333337

>  <Synthetic_Accessibility>  (16) 
4.6654971372235101

$$$$
CHEMBL25-Var2690
     RDKit          2D

 12 13  0  0  0  0  0  0  0  0999 V2000
   -1.5000   -5.1962    0.0000 O   0  0  0  0  0  0  0  0  0  0  0  0
   -2.2500   -3.8971    0.0000 C   0  0  0  0  0  0  0  0  0  0  0  0
   -3.7500   -3.8971    0.0000 O   0  0  0  0  0  0  0  0  0  0  0  0
   -1.5000   -2.5981    0.0000 C   0  0  0  0  0  0  0  0  0  0  0  0
   -0.0000   -2.5981    0.0000 C   0  0  0  0  0  0  0  0  0  0  0  0
    0.7500   -1.2990    0.0000 C   0  0  0  0  0  0  0  0  0  0  0  0
    1.5000    0.0000    0.0000 C   0  0  0  0  0  0  0  0  0  0  0  0
    0.7500    1.2990    0.0000 C   0  0  0  0  0  0  0  0  0  0  0  0
   -0.7500    1.2990    0.0000 C   0  0  0  0  0  0  0  0  0  0  0  0
   -1.5000    0.0000    0.0000 C   0  0  0  0  0  0  0  0  0  0  0  0
   -0.7500   -1.2990    0.0000 C   0  0  0  0  0  0  0  0  0  0  0  0
   -2.2500   -1.2990    0.0000 C   0  0  0  0  0  0  0  0  0  0  0  0
  1  2  2  0
  2  3  1  0
  2  4  1  0
  4  5  1  0
  5  6  1  0
  6  7  1  0
  7  8  2  0
  8  9  1  0
  9 10  1  0
 10 11  1  0
 10 12  1  0
 12  4  1  0
 11  6  1  0
M  END
>  <SMILES>  (17) 
O=C(O)C1CC2C=CCC(C2)C1

>  <Formula>  (17) 
C10H14O2

>  <MW>  (17) 
166.22

>  <HeavyAtoms>  (17) 
12

>  <TotalAtoms>  (17) 
12

>  <FormalCharge>  (17) 
0

>  <CLogP>  (17) 
2.0630000000000002

>  <MolarRefractivity>  (17) 
45.713999999999999

>  <SP3Fraction>  (17) 
0.69999999999999996

>  <TPSA>  (17) 
37.299999999999997

>  <LabuteASA>  (17) 
72.278000000000006

>  <RotatableBonds>  (17) 
1

>  <LHBD>  (17) 
1

>  <HBD>  (17) 
1

>  <LHBA>  (17) 
2

>  <HBA>  (17) 
1

>  <TotalRings>  (17) 
2

>  <AromaticRings>  (17) 
0

>  <AromaticCarboCycles>  (17) 
0

>  <AromaticHeteroCycles>  (17) 
0

>  <AliphaticRings>  (17) 
2

>  <AliphaticCarboCycles>  (17) 
2

>  <AliphaticHeteroCycles>  (17) 
0

>  <Bridgehead>  (17) 
2

>  <Spiro>  (17) 
0

>  <LipinskiR3>  (17) 
1

>  <LipinskiR5>  (17) 
1

>  <Ghose>  (17) 
0

>  <Veber>  (17) 
1

>  <REOS>  (17) 
0

>  <Drug-like>  (17) 
1

>  <QED_MaxWeight>  (17) 
0.60199999999999998

>  <QED_MeanWeight>  (17) 
0.60499999999999998

>  <QED_NoWeight>  (17) 
0.67500000000000004

>  <Reference_Name>  (17) 
CHEMBL25

>  <Reference_SMILES>  (17) 
CC(=O)Oc1ccccc1C(=O)O

>  <Reference_Molecule_SMILES>  (17) 
CC(=O)Oc1ccccc1C(=O)O

>  <Morgan_Tanimoto_Distance>  (17) 
0.80769230769230771

>  <CATS_Euclidean_Distance>  (17) 
36.742346141747674

>  <Gobbi_2Dphp_Tanimoto_Distance>  (17) 
0.99099099099099097

>  <2Dphp_Tanimoto_Distance>  (17) 
0.82926829268292679

>  <Synthetic_Accessibility>  (17) 
4.6644110695099785

$$$$
CHEMBL25-Var232
     RDKit          2D

 14 15  0  0  0  0  0  0  0  0999 V2000
    3.1160    1.2990    0.0000 C   0  0  0  0  0  0  0  0  0  0  0  0
    2.3660    0.0000    0.0000 C   0  0  0  0  0  0  0  0  0  0  0  0
    3.1160   -1.2990    0.0000 O   0  0  0  0  0  0  0  0  0  0  0  0
    0.8660    0.0000    0.0000 C   0  0  0  0  0  0  0  0  0  0  0  0
   -0.4330    0.7500    0.0000 O   0  0  0  0  0  0  0  0  0  0  0  0
   -0.4330   -0.7500    0.0000 C   0  0  0  0  0  0  0  0  0  0  0  0
   -1.9330   -0.7500    0.0000 C   0  0  0  0  0  0  0  0  0  0  0  0
   -2.6830    0.5490    0.0000 O   0  0  0  0  0  0  0  0  0  0  0  0
   -2.6830   -2.0490    0.0000 C   0  0  0  0  0  0  0  0  0  0  0  0
   -1.9330   -3.3481    0.0000 C   0  0  0  0  0  0  0  0  0  0  0  0
   -2.6830   -4.6471    0.0000 C   0  0  0  0  0  0  0  0  0  0  0  0
   -0.4330   -3.3481    0.0000 N   0  0  0  0  0  0  0  0  0  0  0  0
    0.3170   -2.0490    0.0000 C   0  0  0  0  0  0  0  0  0  0  0  0
    1.8170   -2.0490    0.0000 O   0  0  0  0  0  0  0  0  0  0  0  0
  1  2  1  0
  2  3  2  0
  2  4  1  0
  4  5  1  0
  5  6  1  0
  6  7  1  0
  7  8  2  0
  7  9  1  0
  9 10  2  0
 10 11  1  0
 10 12  1  0
 12 13  1  0
 13 14  2  0
  6  4  1  0
 13  6  1  0
M  END
>  <SMILES>  (18) 
CC(=O)C1OC12C(=O)C=C(C)NC2=O

>  <Formula>  (18) 
C9H9NO4

>  <MW>  (18) 
195.17400000000001

>  <HeavyAtoms>  (18) 
14

>  <TotalAtoms>  (18) 
14

>  <FormalCharge>  (18) 
0

>  <CLogP>  (18) 
-0.68400000000000005

>  <MolarRefractivity>  (18) 
45.192

>  <SP3Fraction>  (18) 
0.44400000000000001

>  <TPSA>  (18) 
75.769999999999996

>  <LabuteASA>  (18) 
80.105000000000004

>  <RotatableBonds>  (18) 
1

>  <LHBD>  (18) 
1

>  <HBD>  (18) 
1

>  <LHBA>  (18) 
5

>  <HBA>  (18) 
4

>  <TotalRings>  (18) 
2

>  <AromaticRings>  (18) 
0

>  <AromaticCarboCycles>  (18) 
0

>  <AromaticHeteroCycles>  (18) 
0

>  <AliphaticRings>  (18) 
2

>  <AliphaticCarboCycles>  (18) 
0

>  <AliphaticHeteroCycles>  (18) 
2

>  <Bridgehead>  (18) 
0

>  <Spiro>  (18) 
1

>  <LipinskiR3>  (18) 
1

>  <LipinskiR5>  (18) 
1

>  <Ghose>  (18) 
0

>  <Veber>  (18) 
1

>  <REOS>  (18) 
0

>  <Drug-like>  (18) 
1

>  <QED_MaxWeight>  (18) 
0.42099999999999999

>  <QED_MeanWeight>  (18) 
0.44400000000000001

>  <QED_NoWeight>  (18) 
0.53500000000000003

>  <Reference_Name>  (18) 
CHEMBL25

>  <Reference_SMILES>  (18) 
CC(=O)Oc1ccccc1C(=O)O

>  <Reference_Molecule_SMILES>  (18) 
CC(=O)Oc1ccccc1C(=O)O

>  <Morgan_Tanimoto_Distance>  (18) 
0.76666666666666661

>  <CATS_Euclidean_Distance>  (18) 
36.400549446402593

>  <Gobbi_2Dphp_Tanimoto_Distance>  (18) 
0.91803278688524592

>  <2Dphp_Tanimoto_Distance>  (18) 
0.70588235294117641

>  <Synthetic_Accessibility>  (18) 
4.6468999885102393

$$$$
CHEMBL25-Var1475
     RDKit          2D

 15 17  0  0  0  0  0  0  0  0999 V2000
    0.7500   -3.8971    0.0000 C   0  0  0  0  0  0  0  0  0  0  0  0
    1.5000   -2.5981    0.0000 C   0  0  0  0  0  0  0  0  0  0  0  0
    0.7500   -1.2990    0.0000 C   0  0  0  0  0  0  0  0  0  0  0  0
    1.5000    0.0000    0.0000 C   0  0  0  0  0  0  0  0  0  0  0  0
    0.7500    1.2990    0.0000 C   0  0  0  0  0  0  0  0  0  0  0  0
   -0.7500    1.2990    0.0000 C   0  0  0  0  0  0  0  0  0  0  0  0
   -1.5000    0.0000    0.0000 C   0  0  0  0  0  0  0  0  0  0  0  0
   -0.7500   -1.2990    0.0000 C   0  0  0  0  0  0  0  0  0  0  0  0
    1.7010   -0.7500    0.0000 C   0  0  0  0  0  0  0  0  0  0  0  0
    3.0000   -0.0000    0.0000 C   0  0  0  0  0  0  0  0  0  0  0  0
    4.5000   -0.0000    0.0000 C   0  0  0  0  0  0  0  0  0  0  0  0
    5.2500    1.2990    0.0000 O   0  0  0  0  0  0  0  0  0  0  0  0
    5.2500   -1.2990    0.0000 O   0  0  0  0  0  0  0  0  0  0  0  0
    2.2500    1.2990    0.0000 C   0  0  0  0  0  0  0  0  0  0  0  0
    2.2500   -1.2990    0.0000 C   0  0  0  0  0  0  0  0  0  0  0  0
  1  2  1  0
  2  3  1  0
  3  4  1  0
  4  5  1  0
  5  6  1  0
  6  7  1  0
  7  8  1  0
  7  9  1  0
  9 10  1  0
 10 11  1  0
 11 12  2  0
 11 13  1  0
 10 14  1  0
 10 15  1  0
  8  3  1  0
 15  3  1  0
 14  5  1  0
M  END
>  <SMILES>  (19) 
CCC12CC3CC(C1)CC(C(=O)O)(C3)C2

>  <Formula>  (19) 
C13H20O2

>  <MW>  (19) 
208.30099999999999

>  <HeavyAtoms>  (19) 
15

>  <TotalAtoms>  (19) 
15

>  <FormalCharge>  (19) 
0

>  <CLogP>  (19) 
3.0680000000000001

>  <MolarRefractivity>  (19) 
57.475000000000001

>  <SP3Fraction>  (19) 
0.92300000000000004

>  <TPSA>  (19) 
37.299999999999997

>  <LabuteASA>  (19) 
91.057000000000002

>  <RotatableBonds>  (19) 
2

>  <LHBD>  (19) 
1

>  <HBD>  (19) 
1

>  <LHBA>  (19) 
2

>  <HBA>  (19) 
1

>  <TotalRings>  (19) 
4

>  <AromaticRings>  (19) 
0

>  <AromaticCarboCycles>  (19) 
0

>  <AromaticHeteroCycles>  (19) 
0

>  <AliphaticRings>  (19) 
4

>  <AliphaticCarboCycles>  (19) 
4

>  <AliphaticHeteroCycles>  (19) 
0

>  <Bridgehead>  (19) 
4

>  <Spiro>  (19) 
0

>  <LipinskiR3>  (19) 
1

>  <LipinskiR5>  (19) 
1

>  <Ghose>  (19) 
0

>  <Veber>  (19) 
1

>  <REOS>  (19) 
1

>  <Drug-like>  (19) 
1

>  <QED_MaxWeight>  (19) 
0.77000000000000002

>  <QED_MeanWeight>  (19) 
0.75700000000000001

>  <QED_NoWeight>  (19) 
0.78600000000000003

>  <Reference_Name>  (19) 
CHEMBL25

>  <Reference_SMILES>  (19) 
CC(=O)Oc1ccccc1C(=O)O

>  <Reference_Molecule_SMILES>  (19) 
CC(=O)Oc1ccccc1C(=O)O

>  <Morgan_Tanimoto_Distance>  (19) 
0.82758620689655171

>  <CATS_Euclidean_Distance>  (19) 
35.227829907617071

>  <Gobbi_2Dphp_Tanimoto_Distance>  (19) 
0.98999999999999999

>  <2Dphp_Tanimoto_Distance>  (19) 
0.86538461538461542

>  <Synthetic_Accessibility>  (19) 
4.6386682687051897

$$$$
CHEMBL25-Var3555
     RDKit          2D

 11 12  0  0  0  0  0  0  0  0999 V2000
   -0.1459    3.7548    0.0000 O   0  0  0  0  0  0  0  0  0  0  0  0
    0.8578    2.6401    0.0000 C   0  0  0  0  0  0  0  0  0  0  0  0
    2.3250    2.9520    0.0000 O   0  0  0  0  0  0  0  0  0  0  0  0
    0.3943    1.2135    0.0000 C   0  0  0  0  0  0  0  0  0  0  0  0
    1.2760    0.0000    0.0000 C   0  0  0  0  0  0  0  0  0  0  0  0
    0.3943   -1.2135    0.0000 C   0  0  0  0  0  0  0  0  0  0  0  0
   -1.0323   -0.7500    0.0000 C   0  0  0  0  0  0  0  0  0  0  0  0
   -1.9140    0.4635    0.0000 C   0  0  0  0  0  0  0  0  0  0  0  0
   -1.0323    1.6771    0.0000 C   0  0  0  0  0  0  0  0  0  0  0  0
   -1.4958    3.1036    0.0000 O   0  0  0  0  0  0  0  0  0  0  0  0
   -1.0323    0.7500    0.0000 C   0  0  0  0  0  0  0  0  0  0  0  0
  1  2  2  0
  2  3  1  0
  2  4  1  0
  4  5  1  0
  5  6  1  0
  6  7  1  0
  7  8  1  0
  8  9  1  0
  9 10  2  0
  7 11  1  0
  9  4  1  0
 11  4  1  0
M  END
>  <SMILES>  (20) 
O=C(O)C12CCC(CC1=O)C2

>  <Formula>  (20) 
C8H10O3

>  <MW>  (20) 
154.16499999999999

>  <HeavyAtoms>  (20) 
11

>  <TotalAtoms>  (20) 
11

>  <FormalCharge>  (20) 
0

>  <CLogP>  (20) 
0.82999999999999996

>  <MolarRefractivity>  (20) 
37.033999999999999

>  <SP3Fraction>  (20) 
0.75

>  <TPSA>  (20) 
54.369999999999997

>  <LabuteASA>  (20) 
64.399000000000001

>  <RotatableBonds>  (20) 
1

>  <LHBD>  (20) 
1

>  <HBD>  (20) 
1

>  <LHBA>  (20) 
3

>  <HBA>  (20) 
2

>  <TotalRings>  (20) 
2

>  <AromaticRings>  (20) 
0

>  <AromaticCarboCycles>  (20) 
0

>  <AromaticHeteroCycles>  (20) 
0

>  <AliphaticRings>  (20) 
2

>  <AliphaticCarboCycles>  (20) 
2

>  <AliphaticHeteroCycles>  (20) 
0

>  <Bridgehead>  (20) 
2

>  <Spiro>  (20) 
0

>  <LipinskiR3>  (20) 
1

>  <LipinskiR5>  (20) 
1

>  <Ghose>  (20) 
0

>  <Veber>  (20) 
1

>  <REOS>  (20) 
0

>  <Drug-like>  (20) 
1

>  <QED_MaxWeight>  (20) 
0.56999999999999995

>  <QED_MeanWeight>  (20) 
0.56899999999999995

>  <QED_NoWeight>  (20) 
0.64800000000000002

>  <Reference_Name>  (20) 
CHEMBL25

>  <Reference_SMILES>  (20) 
CC(=O)Oc1ccccc1C(=O)O

>  <Reference_Molecule_SMILES>  (20) 
CC(=O)Oc1ccccc1C(=O)O

>  <Morgan_Tanimoto_Distance>  (20) 
0.8214285714285714

>  <CATS_Euclidean_Distance>  (20) 
34.684290392049249

>  <Gobbi_2Dphp_Tanimoto_Distance>  (20) 
0.93243243243243246

>  <2Dphp_Tanimoto_Distance>  (20) 
0.72499999999999998

>  <Synthetic_Accessibility>  (20) 
4.6351961185978343

$$$$
CHEMBL25-Var3127
     RDKit          2D

 13 14  0  0  0  0  0  0  0  0999 V2000
    2.3907   -1.0037    0.0000 N   0  0  0  0  0  0  0  0  0  0  0  0
    1.2760    0.0000    0.0000 C   0  0  0  0  0  0  0  0  0  0  0  0
    2.3907    1.0037    0.0000 C   0  0  0  0  0  0  0  0  0  0  0  0
    2.0788    2.4709    0.0000 O   0  0  0  0  0  0  0  0  0  0  0  0
    3.8173    0.5402    0.0000 O   0  0  0  0  0  0  0  0  0  0  0  0
    0.3943    1.2135    0.0000 C   0  0  0  0  0  0  0  0  0  0  0  0
   -1.0323    0.7500    0.0000 S   0  0  0  0  0  0  0  0  0  0  0  0
   -1.0323   -0.7500    0.0000 C   0  0  0  0  0  0  0  0  0  0  0  0
   -0.7204   -2.2172    0.0000 C   0  0  0  0  0  0  0  0  0  0  0  0
   -1.1839   -3.6438    0.0000 C   0  0  0  0  0  0  0  0  0  0  0  0
   -0.1802   -4.7585    0.0000 O   0  0  0  0  0  0  0  0  0  0  0  0
   -2.6512   -3.9557    0.0000 O   0  0  0  0  0  0  0  0  0  0  0  0
    0.3943   -1.2135    0.0000 C   0  0  0  0  0  0  0  0  0  0  0  0
  1  2  1  0
  2  3  1  0
  3  4  2  0
  3  5  1  0
  2  6  1  0
  6  7  1  0
  7  8  1  0
  8  9  1  0
  9 10  1  0
 10 11  2  0
 10 12  1  0
  9 13  1  0
 13  2  1  0
 13  8  1  0
M  END
>  <SMILES>  (21) 
NC1(C(=O)O)CSC2C(C(=O)O)C21

>  <Formula>  (21) 
C7H9NO4S

>  <MW>  (21) 
203.21899999999999

>  <HeavyAtoms>  (21) 
13

>  <TotalAtoms>  (21) 
13

>  <FormalCharge>  (21) 
0

>  <CLogP>  (21) 
-0.78600000000000003

>  <MolarRefractivity>  (21) 
45.415999999999997

>  <SP3Fraction>  (21) 
0.71399999999999997

>  <TPSA>  (21) 
100.62

>  <LabuteASA>  (21) 
78.292000000000002

>  <RotatableBonds>  (21) 
2

>  <LHBD>  (21) 
4

>  <HBD>  (21) 
3

>  <LHBA>  (21) 
5

>  <HBA>  (21) 
4

>  <TotalRings>  (21) 
2

>  <AromaticRings>  (21) 
0

>  <AromaticCarboCycles>  (21) 
0

>  <AromaticHeteroCycles>  (21) 
0

>  <AliphaticRings>  (21) 
2

>  <AliphaticCarboCycles>  (21) 
1

>  <AliphaticHeteroCycles>  (21) 
1

>  <Bridgehead>  (21) 
0

>  <Spiro>  (21) 
0

>  <LipinskiR3>  (21) 
0

>  <LipinskiR5>  (21) 
1

>  <Ghose>  (21) 
0

>  <Veber>  (21) 
1

>  <REOS>  (21) 
0

>  <Drug-like>  (21) 
1

>  <QED_MaxWeight>  (21) 
0.57999999999999996

>  <QED_MeanWeight>  (21) 
0.54400000000000004

>  <QED_NoWeight>  (21) 
0.52300000000000002

>  <Reference_Name>  (21) 
CHEMBL25

>  <Reference_SMILES>  (21) 
CC(=O)Oc1ccccc1C(=O)O

>  <Reference_Molecule_SMILES>  (21) 
CC(=O)Oc1ccccc1C(=O)O

>  <Morgan_Tanimoto_Distance>  (21) 
0.86206896551724133

>  <CATS_Euclidean_Distance>  (21) 
38.327535793473601

>  <Gobbi_2Dphp_Tanimoto_Distance>  (21) 
0.95263157894736838

>  <2Dphp_Tanimoto_Distance>  (21) 
0.82795698924731176

>  <Synthetic_Accessibility>  (21) 
4.6242909777320023

$$$$
CHEMBL25-Var1635
     RDKit          2D

 15 16  0  0  0  0  0  0  0  0999 V2000
    0.8578    2.6401    0.0000 C   0  0  0  0  0  0  0  0  0  0  0  0
    0.3943    1.2135    0.0000 C   0  0  0  0  0  0  0  0  0  0  0  0
    1.2760    0.0000    0.0000 C   0  0  0  0  0  0  0  0  0  0  0  0
    0.3943   -1.2135    0.0000 C   0  0  0  0  0  0  0  0  0  0  0  0
   -1.0323   -0.7500    0.0000 C   0  0  0  0  0  0  0  0  0  0  0  0
   -2.2458   -1.6317    0.0000 C   0  0  0  0  0  0  0  0  0  0  0  0
   -1.0323    0.7500    0.0000 O   0  0  0  0  0  0  0  0  0  0  0  0
   -1.9140    0.4635    0.0000 C   0  0  0  0  0  0  0  0  0  0  0  0
   -3.4140    0.4635    0.0000 C   0  0  0  0  0  0  0  0  0  0  0  0
   -4.1640   -0.8355    0.0000 O   0  0  0  0  0  0  0  0  0  0  0  0
   -4.1640    1.7626    0.0000 O   0  0  0  0  0  0  0  0  0  0  0  0
   -1.0323    1.6771    0.0000 C   0  0  0  0  0  0  0  0  0  0  0  0
   -1.4958    3.1036    0.0000 C   0  0  0  0  0  0  0  0  0  0  0  0
   -2.9630    3.4155    0.0000 O   0  0  0  0  0  0  0  0  0  0  0  0
   -0.4921    4.2184    0.0000 O   0  0  0  0  0  0  0  0  0  0  0  0
  1  2  1  0
  2  3  1  0
  3  4  1  0
  4  5  1  0
  5  6  1  0
  5  7  1  0
  5  8  1  0
  8  9  1  0
  9 10  2  0
  9 11  1  0
  8 12  1  0
 12 13  1  0
 13 14  2  0
 13 15  1  0
  7  2  1  0
 12  2  1  0
M  END
>  <SMILES>  (22) 
CC12CCC(C)(O1)C(C(=O)O)C2C(=O)O

>  <Formula>  (22) 
C10H14O5

>  <MW>  (22) 
214.21700000000001

>  <HeavyAtoms>  (22) 
15

>  <TotalAtoms>  (22) 
15

>  <FormalCharge>  (22) 
0

>  <CLogP>  (22) 
0.72899999999999998

>  <MolarRefractivity>  (22) 
49.381

>  <SP3Fraction>  (22) 
0.80000000000000004

>  <TPSA>  (22) 
83.829999999999998

>  <LabuteASA>  (22) 
87.037000000000006

>  <RotatableBonds>  (22) 
2

>  <LHBD>  (22) 
2

>  <HBD>  (22) 
2

>  <LHBA>  (22) 
5

>  <HBA>  (22) 
3

>  <TotalRings>  (22) 
2

>  <AromaticRings>  (22) 
0

>  <AromaticCarboCycles>  (22) 
0

>  <AromaticHeteroCycles>  (22) 
0

>  <AliphaticRings>  (22) 
2

>  <AliphaticCarboCycles>  (22) 
0

>  <AliphaticHeteroCycles>  (22) 
2

>  <Bridgehead>  (22) 
2

>  <Spiro>  (22) 
0

>  <LipinskiR3>  (22) 
1

>  <LipinskiR5>  (22) 
1

>  <Ghose>  (22) 
0

>  <Veber>  (22) 
1

>  <REOS>  (22) 
1

>  <Drug-like>  (22) 
1

>  <QED_MaxWeight>  (22) 
0.72999999999999998

>  <QED_MeanWeight>  (22) 
0.70699999999999996

>  <QED_NoWeight>  (22) 
0.70799999999999996

>  <Reference_Name>  (22) 
CHEMBL25

>  <Reference_SMILES>  (22) 
CC(=O)Oc1ccccc1C(=O)O

>  <Reference_Molecule_SMILES>  (22) 
CC(=O)Oc1ccccc1C(=O)O

>  <Morgan_Tanimoto_Distance>  (22) 
0.80769230769230771

>  <CATS_Euclidean_Distance>  (22) 
40.484564959994323

>  <Gobbi_2Dphp_Tanimoto_Distance>  (22) 
0.91935483870967738

>  <2Dphp_Tanimoto_Distance>  (22) 
0.64150943396226423

>  <Synthetic_Accessibility>  (22) 
4.6105600692123749

$$$$
CHEMBL25-Var277
     RDKit          2D

 15 16  0  0  0  0  0  0  0  0999 V2000
   -0.6630   -7.1477    0.0000 C   0  0  0  0  0  0  0  0  0  0  0  0
    0.4518   -6.1440    0.0000 C   0  0  0  0  0  0  0  0  0  0  0  0
    1.8783   -6.6075    0.0000 O   0  0  0  0  0  0  0  0  0  0  0  0
    0.1399   -4.6767    0.0000 O   0  0  0  0  0  0  0  0  0  0  0  0
    1.2546   -3.6731    0.0000 C   0  0  0  0  0  0  0  0  0  0  0  0
    2.1363   -4.8866    0.0000 C   0  0  0  0  0  0  0  0  0  0  0  0
    2.5537   -2.9231    0.0000 N   0  0  0  0  0  0  0  0  0  0  0  0
    2.2418   -1.4558    0.0000 N   0  0  0  0  0  0  0  0  0  0  0  0
    0.7500   -1.2990    0.0000 C   0  0  0  0  0  0  0  0  0  0  0  0
    1.5000    0.0000    0.0000 C   0  0  0  0  0  0  0  0  0  0  0  0
    0.7500    1.2990    0.0000 C   0  0  0  0  0  0  0  0  0  0  0  0
   -0.7500    1.2990    0.0000 C   0  0  0  0  0  0  0  0  0  0  0  0
   -1.5000    0.0000    0.0000 C   0  0  0  0  0  0  0  0  0  0  0  0
   -0.7500   -1.2990    0.0000 C   0  0  0  0  0  0  0  0  0  0  0  0
    0.1399   -2.6694    0.0000 O   0  0  0  0  0  0  0  0  0  0  0  0
  1  2  1  0
  2  3  2  0
  2  4  1  0
  4  5  1  0
  5  6  1  0
  5  7  1  0
  7  8  2  0
  8  9  1  0
  9 10  1  0
 10 11  1  0
 11 12  1  0
 12 13  1  0
 13 14  1  0
  9 15  1  0
 15  5  1  0
 14  9  1  0
M  END
>  <SMILES>  (23) 
CC(=O)OC1(C)N=NC2(CCCCC2)O1

>  <Formula>  (23) 
C10H16N2O3

>  <MW>  (23) 
212.249

>  <HeavyAtoms>  (23) 
15

>  <TotalAtoms>  (23) 
15

>  <FormalCharge>  (23) 
0

>  <CLogP>  (23) 
2.3660000000000001

>  <MolarRefractivity>  (23) 
51.927999999999997

>  <SP3Fraction>  (23) 
0.90000000000000002

>  <TPSA>  (23) 
60.25

>  <LabuteASA>  (23) 
88.846999999999994

>  <RotatableBonds>  (23) 
1

>  <LHBD>  (23) 
0

>  <HBD>  (23) 
0

>  <LHBA>  (23) 
5

>  <HBA>  (23) 
5

>  <TotalRings>  (23) 
2

>  <AromaticRings>  (23) 
0

>  <AromaticCarboCycles>  (23) 
0

>  <AromaticHeteroCycles>  (23) 
0

>  <AliphaticRings>  (23) 
2

>  <AliphaticCarboCycles>  (23) 
1

>  <AliphaticHeteroCycles>  (23) 
1

>  <Bridgehead>  (23) 
0

>  <Spiro>  (23) 
1

>  <LipinskiR3>  (23) 
1

>  <LipinskiR5>  (23) 
1

>  <Ghose>  (23) 
0

>  <Veber>  (23) 
1

>  <REOS>  (23) 
1

>  <Drug-like>  (23) 
1

>  <QED_MaxWeight>  (23) 
0.61699999999999999

>  <QED_MeanWeight>  (23) 
0.627

>  <QED_NoWeight>  (23) 
0.69999999999999996

>  <Reference_Name>  (23) 
CHEMBL25

>  <Reference_SMILES>  (23) 
CC(=O)Oc1ccccc1C(=O)O

>  <Reference_Molecule_SMILES>  (23) 
CC(=O)Oc1ccccc1C(=O)O

>  <Morgan_Tanimoto_Distance>  (23) 
0.75

>  <CATS_Euclidean_Distance>  (23) 
43.278170016764804

>  <Gobbi_2Dphp_Tanimoto_Distance>  (23) 
0.98039215686274506

>  <2Dphp_Tanimoto_Distance>  (23) 
0.94117647058823528

>  <Synthetic_Accessibility>  (23) 
4.6072040958074689

$$$$
CHEMBL25-Var3483
     RDKit          2D

 15 17  0  0  0  0  0  0  0  0999 V2000
   -0.7500   -3.8971    0.0000 O   0  0  0  0  0  0  0  0  0  0  0  0
    0.7500   -3.8971    0.0000 C   0  0  0  0  0  0  0  0  0  0  0  0
    1.5000   -5.1962    0.0000 O   0  0  0  0  0  0  0  0  0  0  0  0
    1.5000   -2.5981    0.0000 C   0  0  0  0  0  0  0  0  0  0  0  0
    0.7500   -1.2990    0.0000 C   0  0  0  0  0  0  0  0  0  0  0  0
    1.5000    0.0000    0.0000 C   0  0  0  0  0  0  0  0  0  0  0  0
    0.7500    1.2990    0.0000 C   0  0  0  0  0  0  0  0  0  0  0  0
   -0.7500    1.2990    0.0000 C   0  0  0  0  0  0  0  0  0  0  0  0
   -1.5000    0.0000    0.0000 C   0  0  0  0  0  0  0  0  0  0  0  0
    1.7010   -0.7500    0.0000 C   0  0  0  0  0  0  0  0  0  0  0  0
    3.0000   -0.0000    0.0000 C   0  0  0  0  0  0  0  0  0  0  0  0
    4.5000   -0.0000    0.0000 O   0  0  0  0  0  0  0  0  0  0  0  0
    2.2500    1.2990    0.0000 C   0  0  0  0  0  0  0  0  0  0  0  0
    2.2500   -1.2990    0.0000 C   0  0  0  0  0  0  0  0  0  0  0  0
   -0.7500   -1.2990    0.0000 C   0  0  0  0  0  0  0  0  0  0  0  0
  1  2  2  0
  2  3  1  0
  2  4  1  0
  4  5  1  0
  5  6  1  0
  6  7  1  0
  7  8  1  0
  8  9  1  0
  9 10  1  0
 10 11  1  0
 11 12  1  0
 11 13  1  0
 11 14  1  0
  9 15  1  0
 14  5  1  0
 15  5  1  0
 13  7  1  0
M  END
>  <SMILES>  (24) 
O=C(O)CC12CC3CC(CC(O)(C3)C1)C2

>  <Formula>  (24) 
C12H18O3

>  <MW>  (24) 
210.273

>  <HeavyAtoms>  (24) 
15

>  <TotalAtoms>  (24) 
15

>  <FormalCharge>  (24) 
0

>  <CLogP>  (24) 
1.792

>  <MolarRefractivity>  (24) 
54.317999999999998

>  <SP3Fraction>  (24) 
0.91700000000000004

>  <TPSA>  (24) 
57.530000000000001

>  <LabuteASA>  (24) 
89.486000000000004

>  <RotatableBonds>  (24) 
2

>  <LHBD>  (24) 
2

>  <HBD>  (24) 
2

>  <LHBA>  (24) 
3

>  <HBA>  (24) 
2

>  <TotalRings>  (24) 
4

>  <AromaticRings>  (24) 
0

>  <AromaticCarboCycles>  (24) 
0

>  <AromaticHeteroCycles>  (24) 
0

>  <AliphaticRings>  (24) 
4

>  <AliphaticCarboCycles>  (24) 
4

>  <AliphaticHeteroCycles>  (24) 
0

>  <Bridgehead>  (24) 
4

>  <Spiro>  (24) 
0

>  <LipinskiR3>  (24) 
1

>  <LipinskiR5>  (24) 
1

>  <Ghose>  (24) 
0

>  <Veber>  (24) 
1

>  <REOS>  (24) 
1

>  <Drug-like>  (24) 
1

>  <QED_MaxWeight>  (24) 
0.74099999999999999

>  <QED_MeanWeight>  (24) 
0.72999999999999998

>  <QED_NoWeight>  (24) 
0.77300000000000002

>  <Reference_Name>  (24) 
CHEMBL25

>  <Reference_SMILES>  (24) 
CC(=O)Oc1ccccc1C(=O)O

>  <Reference_Molecule_SMILES>  (24) 
CC(=O)Oc1ccccc1C(=O)O

>  <Morgan_Tanimoto_Distance>  (24) 
0.86206896551724133

>  <CATS_Euclidean_Distance>  (24) 
34.713109915419565

>  <Gobbi_2Dphp_Tanimoto_Distance>  (24) 
0.96855345911949686

>  <2Dphp_Tanimoto_Distance>  (24) 
0.77272727272727271

>  <Synthetic_Accessibility>  (24) 
4.5811539829909034

$$$$
CHEMBL25-Var3988
     RDKit          2D

 13 14  0  0  0  0  0  0  0  0999 V2000
   -4.1640   -0.8355    0.0000 O   0  0  0  0  0  0  0  0  0  0  0  0
   -3.4140    0.4635    0.0000 C   0  0  0  0  0  0  0  0  0  0  0  0
   -4.1640    1.7626    0.0000 O   0  0  0  0  0  0  0  0  0  0  0  0
   -1.9140    0.4635    0.0000 C   0  0  0  0  0  0  0  0  0  0  0  0
   -1.0323    1.6771    0.0000 C   0  0  0  0  0  0  0  0  0  0  0  0
   -1.4958    3.1036    0.0000 C   0  0  0  0  0  0  0  0  0  0  0  0
   -2.9630    3.4155    0.0000 O   0  0  0  0  0  0  0  0  0  0  0  0
   -0.4921    4.2184    0.0000 O   0  0  0  0  0  0  0  0  0  0  0  0
    0.3943    1.2135    0.0000 C   0  0  0  0  0  0  0  0  0  0  0  0
    1.2760    0.0000    0.0000 C   0  0  0  0  0  0  0  0  0  0  0  0
    0.3943   -1.2135    0.0000 C   0  0  0  0  0  0  0  0  0  0  0  0
   -1.0323   -0.7500    0.0000 C   0  0  0  0  0  0  0  0  0  0  0  0
   -1.0323    0.7500    0.0000 C   0  0  0  0  0  0  0  0  0  0  0  0
  1  2  2  0
  2  3  1  0
  2  4  1  0
  4  5  2  0
  5  6  1  0
  6  7  2  0
  6  8  1  0
  5  9  1  0
  9 10  1  0
 10 11  2  0
 11 12  1  0
 12 13  1  0
 12  4  1  0
 13  9  1  0
M  END
>  <SMILES>  (25) 
O=C(O)C1=C(C(=O)O)C2C=CC1C2

>  <Formula>  (25) 
C9H8O4

>  <MW>  (25) 
180.15899999999999

>  <HeavyAtoms>  (25) 
13

>  <TotalAtoms>  (25) 
13

>  <FormalCharge>  (25) 
0

>  <CLogP>  (25) 
0.65800000000000003

>  <MolarRefractivity>  (25) 
43.034999999999997

>  <SP3Fraction>  (25) 
0.33300000000000002

>  <TPSA>  (25) 
74.599999999999994

>  <LabuteASA>  (25) 
74.179000000000002

>  <RotatableBonds>  (25) 
2

>  <LHBD>  (25) 
2

>  <HBD>  (25) 
2

>  <LHBA>  (25) 
4

>  <HBA>  (25) 
2

>  <TotalRings>  (25) 
2

>  <AromaticRings>  (25) 
0

>  <AromaticCarboCycles>  (25) 
0

>  <AromaticHeteroCycles>  (25) 
0

>  <AliphaticRings>  (25) 
2

>  <AliphaticCarboCycles>  (25) 
2

>  <AliphaticHeteroCycles>  (25) 
0

>  <Bridgehead>  (25) 
2

>  <Spiro>  (25) 
0

>  <LipinskiR3>  (25) 
1

>  <LipinskiR5>  (25) 
1

>  <Ghose>  (25) 
0

>  <Veber>  (25) 
1

>  <REOS>  (25) 
0

>  <Drug-like>  (25) 
1

>  <QED_MaxWeight>  (25) 
0.61399999999999999

>  <QED_MeanWeight>  (25) 
0.61199999999999999

>  <QED_NoWeight>  (25) 
0.66600000000000004

>  <Reference_Name>  (25) 
CHEMBL25

>  <Reference_SMILES>  (25) 
CC(=O)Oc1ccccc1C(=O)O

>  <Reference_Molecule_SMILES>  (25) 
CC(=O)Oc1ccccc1C(=O)O

>  <Morgan_Tanimoto_Distance>  (25) 
0.66666666666666674

>  <CATS_Euclidean_Distance>  (25) 
39.471508711981102

>  <Gobbi_2Dphp_Tanimoto_Distance>  (25) 
0.98630136986301364

>  <2Dphp_Tanimoto_Distance>  (25) 
0.75

>  <Synthetic_Accessibility>  (25) 
4.4824106971445943

$$$$
CHEMBL25-Var157
     RDKit          2D

 15 16  0  0  0  0  0  0  0  0999 V2000
    5.0260    1.2990    0.0000 C   0  0  0  0  0  0  0  0  0  0  0  0
    3.5260    1.2990    0.0000 C   0  0  0  0  0  0  0  0  0  0  0  0
    2.7760    2.5981    0.0000 O   0  0  0  0  0  0  0  0  0  0  0  0
    2.7760    0.0000    0.0000 O   0  0  0  0  0  0  0  0  0  0  0  0
    1.2760    0.0000    0.0000 C   0  0  0  0  0  0  0  0  0  0  0  0
    0.3943    1.2135    0.0000 C   0  0  0  0  0  0  0  0  0  0  0  0
   -1.0323    0.7500    0.0000 C   0  0  0  0  0  0  0  0  0  0  0  0
   -1.9140   -0.4635    0.0000 C   0  0  0  0  0  0  0  0  0  0  0  0
   -3.4140   -0.4635    0.0000 O   0  0  0  0  0  0  0  0  0  0  0  0
   -1.0323   -1.6771    0.0000 C   0  0  0  0  0  0  0  0  0  0  0  0
    0.3943   -1.2135    0.0000 C   0  0  0  0  0  0  0  0  0  0  0  0
    0.8578   -2.6401    0.0000 C   0  0  0  0  0  0  0  0  0  0  0  0
   -1.0323   -0.7500    0.0000 C   0  0  0  0  0  0  0  0  0  0  0  0
   -1.6899   -2.0982    0.0000 C   0  0  0  0  0  0  0  0  0  0  0  0
   -2.5177   -0.9588    0.0000 C   0  0  0  0  0  0  0  0  0  0  0  0
  1  2  1  0
  2  3  2  0
  2  4  1  0
  4  5  1  0
  5  6  1  0
  6  7  1  0
  7  8  1  0
  8  9  2  0
  8 10  1  0
 10 11  1  0
 11 12  1  0
 11 13  1  0
 13 14  1  0
 13 15  1  0
 11  5  1  0
 13  7  1  0
M  END
>  <SMILES>  (26) 
CC(=O)OC1CC2C(=O)CC1(C)C2(C)C

>  <Formula>  (26) 
C12H18O3

>  <MW>  (26) 
210.273

>  <HeavyAtoms>  (26) 
15

>  <TotalAtoms>  (26) 
15

>  <FormalCharge>  (26) 
0

>  <CLogP>  (26) 
1.9430000000000001

>  <MolarRefractivity>  (26) 
55.173000000000002

>  <SP3Fraction>  (26) 
0.83299999999999996

>  <TPSA>  (26) 
43.369999999999997

>  <LabuteASA>  (26) 
90.179000000000002

>  <RotatableBonds>  (26) 
1

>  <LHBD>  (26) 
0

>  <HBD>  (26) 
0

>  <LHBA>  (26) 
3

>  <HBA>  (26) 
3

>  <TotalRings>  (26) 
2

>  <AromaticRings>  (26) 
0

>  <AromaticCarboCycles>  (26) 
0

>  <AromaticHeteroCycles>  (26) 
0

>  <AliphaticRings>  (26) 
2

>  <AliphaticCarboCycles>  (26) 
2

>  <AliphaticHeteroCycles>  (26) 
0

>  <Bridgehead>  (26) 
2

>  <Spiro>  (26) 
0

>  <LipinskiR3>  (26) 
1

>  <LipinskiR5>  (26) 
1

>  <Ghose>  (26) 
0

>  <Veber>  (26) 
1

>  <REOS>  (26) 
1

>  <Drug-like>  (26) 
1

>  <QED_MaxWeight>  (26) 
0.61199999999999999

>  <QED_MeanWeight>  (26) 
0.621

>  <QED_NoWeight>  (26) 
0.69299999999999995

>  <Reference_Name>  (26) 
CHEMBL25

>  <Reference_SMILES>  (26) 
CC(=O)Oc1ccccc1C(=O)O

>  <Reference_Molecule_SMILES>  (26) 
CC(=O)Oc1ccccc1C(=O)O

>  <Morgan_Tanimoto_Distance>  (26) 
0.72413793103448276

>  <CATS_Euclidean_Distance>  (26) 
35.608987629529715

>  <Gobbi_2Dphp_Tanimoto_Distance>  (26) 
0.97674418604651159

>  <2Dphp_Tanimoto_Distance>  (26) 
0.8666666666666667

>  <Synthetic_Accessibility>  (26) 
4.4812515304911598

$$$$
CHEMBL25-Var140
     RDKit          2D

 14 15  0  0  0  0  0  0  0  0999 V2000
   -5.6640   -0.8355    0.0000 C   0  0  0  0  0  0  0  0  0  0  0  0
   -4.1640   -0.8355    0.0000 C   0  0  0  0  0  0  0  0  0  0  0  0
   -3.4140   -2.1346    0.0000 O   0  0  0  0  0  0  0  0  0  0  0  0
   -3.4140    0.4635    0.0000 O   0  0  0  0  0  0  0  0  0  0  0  0
   -1.9140    0.4635    0.0000 C   0  0  0  0  0  0  0  0  0  0  0  0
   -1.0323    1.6771    0.0000 C   0  0  0  0  0  0  0  0  0  0  0  0
    0.3943    1.2135    0.0000 C   0  0  0  0  0  0  0  0  0  0  0  0
    0.8578    2.6401    0.0000 C   0  0  0  0  0  0  0  0  0  0  0  0
    1.2760    0.0000    0.0000 C   0  0  0  0  0  0  0  0  0  0  0  0
    0.3943   -1.2135    0.0000 C   0  0  0  0  0  0  0  0  0  0  0  0
   -1.0323   -0.7500    0.0000 C   0  0  0  0  0  0  0  0  0  0  0  0
   -1.0323    0.7500    0.0000 C   0  0  0  0  0  0  0  0  0  0  0  0
   -2.5177    0.9588    0.0000 C   0  0  0  0  0  0  0  0  0  0  0  0
   -1.6899    2.0982    0.0000 C   0  0  0  0  0  0  0  0  0  0  0  0
  1  2  1  0
  2  3  2  0
  2  4  1  0
  4  5  1  0
  5  6  1  0
  6  7  1  0
  7  8  1  0
  7  9  1  0
  9 10  1  0
 10 11  1  0
 11 12  1  0
 12 13  1  0
 12 14  1  0
 11  5  1  0
 12  7  1  0
M  END
>  <SMILES>  (27) 
CC(=O)OC1CC2(C)CCC1C2(C)C

>  <Formula>  (27) 
C12H20O2

>  <MW>  (27) 
196.28999999999999

>  <HeavyAtoms>  (27) 
14

>  <TotalAtoms>  (27) 
14

>  <FormalCharge>  (27) 
0

>  <CLogP>  (27) 
2.7639999999999998

>  <MolarRefractivity>  (27) 
54.783000000000001

>  <SP3Fraction>  (27) 
0.91700000000000004

>  <TPSA>  (27) 
26.300000000000001

>  <LabuteASA>  (27) 
86.016999999999996

>  <RotatableBonds>  (27) 
1

>  <LHBD>  (27) 
0

>  <HBD>  (27) 
0

>  <LHBA>  (27) 
2

>  <HBA>  (27) 
2

>  <TotalRings>  (27) 
2

>  <AromaticRings>  (27) 
0

>  <AromaticCarboCycles>  (27) 
0

>  <AromaticHeteroCycles>  (27) 
0

>  <AliphaticRings>  (27) 
2

>  <AliphaticCarboCycles>  (27) 
2

>  <AliphaticHeteroCycles>  (27) 
0

>  <Bridgehead>  (27) 
2

>  <Spiro>  (27) 
0

>  <LipinskiR3>  (27) 
1

>  <LipinskiR5>  (27) 
1

>  <Ghose>  (27) 
0

>  <Veber>  (27) 
1

>  <REOS>  (27) 
0

>  <Drug-like>  (27) 
1

>  <QED_MaxWeight>  (27) 
0.59599999999999997

>  <QED_MeanWeight>  (27) 
0.60299999999999998

>  <QED_NoWeight>  (27) 
0.65500000000000003

>  <Reference_Name>  (27) 
CHEMBL25

>  <Reference_SMILES>  (27) 
CC(=O)Oc1ccccc1C(=O)O

>  <Reference_Molecule_SMILES>  (27) 
CC(=O)Oc1ccccc1C(=O)O

>  <Morgan_Tanimoto_Distance>  (27) 
0.75

>  <CATS_Euclidean_Distance>  (27) 
35.369478367654786

>  <Gobbi_2Dphp_Tanimoto_Distance>  (27) 
0.98412698412698418

>  <2Dphp_Tanimoto_Distance>  (27) 
0.93181818181818188

>  <Synthetic_Accessibility>  (27) 
4.4734379866645257

$$$$
CHEMBL25-Var3665
     RDKit          2D

 13 13  0  0  0  0  0  0  0  0999 V2000
    2.3886    2.4414    0.0000 O   0  0  0  0  0  0  0  0  0  0  0  0
    2.6491    0.9642    0.0000 C   0  0  0  0  0  0  0  0  0  0  0  0
    4.0586    0.4512    0.0000 O   0  0  0  0  0  0  0  0  0  0  0  0
    1.5000    0.0000    0.0000 C   0  0  0  0  0  0  0  0  0  0  0  0
    2.6491   -0.9642    0.0000 O   0  0  0  0  0  0  0  0  0  0  0  0
    0.7500   -1.2990    0.0000 C   0  0  0  0  0  0  0  0  0  0  0  0
   -0.7500   -1.2990    0.0000 C   0  0  0  0  0  0  0  0  0  0  0  0
   -1.5000   -2.5981    0.0000 F   0  0  0  0  0  0  0  0  0  0  0  0
   -1.5000    0.0000    0.0000 C   0  0  0  0  0  0  0  0  0  0  0  0
   -3.0000    0.0000    0.0000 O   0  0  0  0  0  0  0  0  0  0  0  0
   -0.7500    1.2990    0.0000 C   0  0  0  0  0  0  0  0  0  0  0  0
   -1.5000    2.5981    0.0000 O   0  0  0  0  0  0  0  0  0  0  0  0
    0.7500    1.2990    0.0000 C   0  0  0  0  0  0  0  0  0  0  0  0
  1  2  2  0
  2  3  1  0
  2  4  1  0
  4  5  1  0
  4  6  1  0
  6  7  2  0
  7  8  1  0
  7  9  1  0
  9 10  1  0
  9 11  1  0
 11 12  1  0
 11 13  1  0
 13  4  1  0
M  END
>  <SMILES>  (28) 
O=C(O)C1(O)C=C(F)C(O)C(O)C1

>  <Formula>  (28) 
C7H9FO5

>  <MW>  (28) 
192.142

>  <HeavyAtoms>  (28) 
13

>  <TotalAtoms>  (28) 
13

>  <FormalCharge>  (28) 
0

>  <CLogP>  (28) 
-1.2190000000000001

>  <MolarRefractivity>  (28) 
38.406999999999996

>  <SP3Fraction>  (28) 
0.57099999999999995

>  <TPSA>  (28) 
97.989999999999995

>  <LabuteASA>  (28) 
72.736999999999995

>  <RotatableBonds>  (28) 
1

>  <LHBD>  (28) 
4

>  <HBD>  (28) 
4

>  <LHBA>  (28) 
5

>  <HBA>  (28) 
4

>  <TotalRings>  (28) 
1

>  <AromaticRings>  (28) 
0

>  <AromaticCarboCycles>  (28) 
0

>  <AromaticHeteroCycles>  (28) 
0

>  <AliphaticRings>  (28) 
1

>  <AliphaticCarboCycles>  (28) 
1

>  <AliphaticHeteroCycles>  (28) 
0

>  <Bridgehead>  (28) 
0

>  <Spiro>  (28) 
0

>  <LipinskiR3>  (28) 
0

>  <LipinskiR5>  (28) 
1

>  <Ghose>  (28) 
0

>  <Veber>  (28) 
1

>  <REOS>  (28) 
0

>  <Drug-like>  (28) 
1

>  <QED_MaxWeight>  (28) 
0.44400000000000001

>  <QED_MeanWeight>  (28) 
0.41699999999999998

>  <QED_NoWeight>  (28) 
0.438

>  <Reference_Name>  (28) 
CHEMBL25

>  <Reference_SMILES>  (28) 
CC(=O)Oc1ccccc1C(=O)O

>  <Reference_Molecule_SMILES>  (28) 
CC(=O)Oc1ccccc1C(=O)O

>  <Morgan_Tanimoto_Distance>  (28) 
0.80000000000000004

>  <CATS_Euclidean_Distance>  (28) 
37.8549864614954

>  <Gobbi_2Dphp_Tanimoto_Distance>  (28) 
0.95483870967741935

>  <2Dphp_Tanimoto_Distance>  (28) 
0.77192982456140347

>  <Synthetic_Accessibility>  (28) 
4.449037500239152

$$$$
CHEMBL25-Var4002
     RDKit          2D

 13 14  0  0  0  0  0  0  0  0999 V2000
   -2.9630    3.4155    0.0000 O   0  0  0  0  0  0  0  0  0  0  0  0
   -1.4958    3.1036    0.0000 C   0  0  0  0  0  0  0  0  0  0  0  0
   -0.4921    4.2184    0.0000 O   0  0  0  0  0  0  0  0  0  0  0  0
   -1.0323    1.6771    0.0000 C   0  0  0  0  0  0  0  0  0  0  0  0
    0.3943    1.2135    0.0000 C   0  0  0  0  0  0  0  0  0  0  0  0
    1.2760    0.0000    0.0000 C   0  0  0  0  0  0  0  0  0  0  0  0
    0.3943   -1.2135    0.0000 C   0  0  0  0  0  0  0  0  0  0  0  0
   -1.0323   -0.7500    0.0000 C   0  0  0  0  0  0  0  0  0  0  0  0
   -1.0323    0.7500    0.0000 O   0  0  0  0  0  0  0  0  0  0  0  0
   -1.9140    0.4635    0.0000 C   0  0  0  0  0  0  0  0  0  0  0  0
   -3.4140    0.4635    0.0000 C   0  0  0  0  0  0  0  0  0  0  0  0
   -4.1640    1.7626    0.0000 O   0  0  0  0  0  0  0  0  0  0  0  0
   -4.1640   -0.8355    0.0000 O   0  0  0  0  0  0  0  0  0  0  0  0
  1  2  2  0
  2  3  1  0
  2  4  1  0
  4  5  1  0
  5  6  1  0
  6  7  2  0
  7  8  1  0
  8  9  1  0
  8 10  1  0
 10 11  1  0
 11 12  2  0
 11 13  1  0
 10  4  1  0
  9  5  1  0
M  END
>  <SMILES>  (29) 
O=C(O)C1C2C=CC(O2)C1C(=O)O

>  <Formula>  (29) 
C8H8O5

>  <MW>  (29) 
184.14699999999999

>  <HeavyAtoms>  (29) 
13

>  <TotalAtoms>  (29) 
13

>  <FormalCharge>  (29) 
0

>  <CLogP>  (29) 
-0.27500000000000002

>  <MolarRefractivity>  (29) 
40.052999999999997

>  <SP3Fraction>  (29) 
0.5

>  <TPSA>  (29) 
83.829999999999998

>  <LabuteASA>  (29) 
73.617999999999995

>  <RotatableBonds>  (29) 
2

>  <LHBD>  (29) 
2

>  <HBD>  (29) 
2

>  <LHBA>  (29) 
5

>  <HBA>  (29) 
3

>  <TotalRings>  (29) 
2

>  <AromaticRings>  (29) 
0

>  <AromaticCarboCycles>  (29) 
0

>  <AromaticHeteroCycles>  (29) 
0

>  <AliphaticRings>  (29) 
2

>  <AliphaticCarboCycles>  (29) 
0

>  <AliphaticHeteroCycles>  (29) 
2

>  <Bridgehead>  (29) 
2

>  <Spiro>  (29) 
0

>  <LipinskiR3>  (29) 
1

>  <LipinskiR5>  (29) 
1

>  <Ghose>  (29) 
0

>  <Veber>  (29) 
1

>  <REOS>  (29) 
0

>  <Drug-like>  (29) 
1

>  <QED_MaxWeight>  (29) 
0.59199999999999997

>  <QED_MeanWeight>  (29) 
0.57699999999999996

>  <QED_NoWeight>  (29) 
0.60399999999999998

>  <Reference_Name>  (29) 
CHEMBL25

>  <Reference_SMILES>  (29) 
CC(=O)Oc1ccccc1C(=O)O

>  <Reference_Molecule_SMILES>  (29) 
CC(=O)Oc1ccccc1C(=O)O

>  <Morgan_Tanimoto_Distance>  (29) 
0.78260869565217395

>  <CATS_Euclidean_Distance>  (29) 
40.484564959994323

>  <Gobbi_2Dphp_Tanimoto_Distance>  (29) 
0.95726495726495731

>  <2Dphp_Tanimoto_Distance>  (29) 
0.64150943396226423

>  <Synthetic_Accessibility>  (29) 
4.4417309438661432

$$$$
CHEMBL25-Var566
     RDKit          2D

 14 14  0  0  0  0  0  0  0  0999 V2000
    3.7500   -1.2990    0.0000 C   0  0  0  0  0  0  0  0  0  0  0  0
    3.0000    0.0000    0.0000 C   0  0  0  0  0  0  0  0  0  0  0  0
    3.7500    1.2990    0.0000 O   0  0  0  0  0  0  0  0  0  0  0  0
    1.5000    0.0000    0.0000 N   0  0  0  0  0  0  0  0  0  0  0  0
    0.7500   -1.2990    0.0000 N   0  0  0  0  0  0  0  0  0  0  0  0
   -0.7500   -1.2990    0.0000 C   0  0  0  0  0  0  0  0  0  0  0  0
   -1.5000   -2.5981    0.0000 C   0  0  0  0  0  0  0  0  0  0  0  0
   -1.5000    0.0000    0.0000 N   0  0  0  0  0  0  0  0  0  0  0  0
   -3.0000    0.0000    0.0000 C   0  0  0  0  0  0  0  0  0  0  0  0
   -3.7500    1.2990    0.0000 C   0  0  0  0  0  0  0  0  0  0  0  0
   -3.7500   -1.2990    0.0000 O   0  0  0  0  0  0  0  0  0  0  0  0
   -0.7500    1.2990    0.0000 N   0  0  0  0  0  0  0  0  0  0  0  0
    0.7500    1.2990    0.0000 C   0  0  0  0  0  0  0  0  0  0  0  0
    1.5000    2.5981    0.0000 C   0  0  0  0  0  0  0  0  0  0  0  0
  1  2  1  0
  2  3  2  0
  2  4  1  0
  4  5  1  0
  5  6  1  0
  6  7  1  0
  6  8  1  0
  8  9  1  0
  9 10  1  0
  9 11  2  0
  8 12  1  0
 12 13  1  0
 13 14  1  0
 13  4  1  0
M  END
>  <SMILES>  (30) 
CC(=O)N1NC(C)N(C(C)=O)NC1C

>  <Formula>  (30) 
C8H16N4O2

>  <MW>  (30) 
200.24199999999999

>  <HeavyAtoms>  (30) 
14

>  <TotalAtoms>  (30) 
14

>  <FormalCharge>  (30) 
0

>  <CLogP>  (30) 
-0.60199999999999998

>  <MolarRefractivity>  (30) 
50.234999999999999

>  <SP3Fraction>  (30) 
0.75

>  <TPSA>  (30) 
64.680000000000007

>  <LabuteASA>  (30) 
83.171000000000006

>  <RotatableBonds>  (30) 
0

>  <LHBD>  (30) 
2

>  <HBD>  (30) 
2

>  <LHBA>  (30) 
6

>  <HBA>  (30) 
4

>  <TotalRings>  (30) 
1

>  <AromaticRings>  (30) 
0

>  <AromaticCarboCycles>  (30) 
0

>  <AromaticHeteroCycles>  (30) 
0

>  <AliphaticRings>  (30) 
1

>  <AliphaticCarboCycles>  (30) 
0

>  <AliphaticHeteroCycles>  (30) 
1

>  <Bridgehead>  (30) 
0

>  <Spiro>  (30) 
0

>  <LipinskiR3>  (30) 
1

>  <LipinskiR5>  (30) 
1

>  <Ghose>  (30) 
0

>  <Veber>  (30) 
1

>  <REOS>  (30) 
0

>  <Drug-like>  (30) 
1

>  <QED_MaxWeight>  (30) 
0.57799999999999996

>  <QED_MeanWeight>  (30) 
0.54800000000000004

>  <QED_NoWeight>  (30) 
0.58899999999999997

>  <Reference_Name>  (30) 
CHEMBL25

>  <Reference_SMILES>  (30) 
CC(=O)Oc1ccccc1C(=O)O

>  <Reference_Molecule_SMILES>  (30) 
CC(=O)Oc1ccccc1C(=O)O

>  <Morgan_Tanimoto_Distance>  (30) 
0.79166666666666663

>  <CATS_Euclidean_Distance>  (30) 
37.389838191679836

>  <Gobbi_2Dphp_Tanimoto_Distance>  (30) 
0.9452054794520548

>  <2Dphp_Tanimoto_Distance>  (30) 
0.94594594594594594

>  <Synthetic_Accessibility>  (30) 
4.4413177076116703

$$$$
CHEMBL25-Var3553
     RDKit          2D

 11 12  0  0  0  0  0  0  0  0999 V2000
    3.5260    1.2990    0.0000 O   0  0  0  0  0  0  0  0  0  0  0  0
    2.7760    0.0000    0.0000 C   0  0  0  0  0  0  0  0  0  0  0  0
    3.5260   -1.2990    0.0000 O   0  0  0  0  0  0  0  0  0  0  0  0
    1.2760    0.0000    0.0000 C   0  0  0  0  0  0  0  0  0  0  0  0
    0.3943    1.2135    0.0000 C   0  0  0  0  0  0  0  0  0  0  0  0
   -1.0323    0.7500    0.0000 C   0  0  0  0  0  0  0  0  0  0  0  0
   -1.9140   -0.4635    0.0000 C   0  0  0  0  0  0  0  0  0  0  0  0
   -1.0323   -1.6771    0.0000 C   0  0  0  0  0  0  0  0  0  0  0  0
   -1.4958   -3.1036    0.0000 O   0  0  0  0  0  0  0  0  0  0  0  0
    0.3943   -1.2135    0.0000 C   0  0  0  0  0  0  0  0  0  0  0  0
   -1.0323   -0.7500    0.0000 C   0  0  0  0  0  0  0  0  0  0  0  0
  1  2  2  0
  2  3  1  0
  2  4  1  0
  4  5  1  0
  5  6  1  0
  6  7  1  0
  7  8  1  0
  8  9  2  0
  8 10  1  0
 10 11  1  0
 10  4  1  0
 11  6  1  0
M  END
>  <SMILES>  (31) 
O=C(O)C1CC2CC(=O)C1C2

>  <Formula>  (31) 
C8H10O3

>  <MW>  (31) 
154.16499999999999

>  <HeavyAtoms>  (31) 
11

>  <TotalAtoms>  (31) 
11

>  <FormalCharge>  (31) 
0

>  <CLogP>  (31) 
0.68600000000000005

>  <MolarRefractivity>  (31) 
36.963999999999999

>  <SP3Fraction>  (31) 
0.75

>  <TPSA>  (31) 
54.369999999999997

>  <LabuteASA>  (31) 
64.399000000000001

>  <RotatableBonds>  (31) 
1

>  <LHBD>  (31) 
1

>  <HBD>  (31) 
1

>  <LHBA>  (31) 
3

>  <HBA>  (31) 
2

>  <TotalRings>  (31) 
2

>  <AromaticRings>  (31) 
0

>  <AromaticCarboCycles>  (31) 
0

>  <AromaticHeteroCycles>  (31) 
0

>  <AliphaticRings>  (31) 
2

>  <AliphaticCarboCycles>  (31) 
2

>  <AliphaticHeteroCycles>  (31) 
0

>  <Bridgehead>  (31) 
2

>  <Spiro>  (31) 
0

>  <LipinskiR3>  (31) 
1

>  <LipinskiR5>  (31) 
1

>  <Ghose>  (31) 
0

>  <Veber>  (31) 
1

>  <REOS>  (31) 
0

>  <Drug-like>  (31) 
1

>  <QED_MaxWeight>  (31) 
0.622

>  <QED_MeanWeight>  (31) 
0.60399999999999998

>  <QED_NoWeight>  (31) 
0.66500000000000004

>  <Reference_Name>  (31) 
CHEMBL25

>  <Reference_SMILES>  (31) 
CC(=O)Oc1ccccc1C(=O)O

>  <Reference_Molecule_SMILES>  (31) 
CC(=O)Oc1ccccc1C(=O)O

>  <Morgan_Tanimoto_Distance>  (31) 
0.80769230769230771

>  <CATS_Euclidean_Distance>  (31) 
37.080992435478315

>  <Gobbi_2Dphp_Tanimoto_Distance>  (31) 
0.99259259259259258

>  <2Dphp_Tanimoto_Distance>  (31) 
0.67391304347826086

>  <Synthetic_Accessibility>  (31) 
4.4330959077477861

$$$$
CHEMBL25-Var3554
     RDKit          2D

 14 15  0  0  0  0  0  0  0  0999 V2000
    2.7760    0.0000    0.0000 O   0  0  0  0  0  0  0  0  0  0  0  0
    1.2760    0.0000    0.0000 C   0  0  0  0  0  0  0  0  0  0  0  0
    0.3943    1.2135    0.0000 C   0  0  0  0  0  0  0  0  0  0  0  0
   -1.0323    0.7500    0.0000 C   0  0  0  0  0  0  0  0  0  0  0  0
   -1.0323   -0.7500    0.0000 C   0  0  0  0  0  0  0  0  0  0  0  0
    0.3943   -1.2135    0.0000 C   0  0  0  0  0  0  0  0  0  0  0  0
   -1.0323   -1.6771    0.0000 C   0  0  0  0  0  0  0  0  0  0  0  0
   -1.4958   -3.1036    0.0000 C   0  0  0  0  0  0  0  0  0  0  0  0
   -2.9630   -3.4155    0.0000 O   0  0  0  0  0  0  0  0  0  0  0  0
   -0.4921   -4.2184    0.0000 O   0  0  0  0  0  0  0  0  0  0  0  0
   -1.9140   -0.4635    0.0000 C   0  0  0  0  0  0  0  0  0  0  0  0
   -3.4140   -0.4635    0.0000 C   0  0  0  0  0  0  0  0  0  0  0  0
   -4.1640   -1.7626    0.0000 O   0  0  0  0  0  0  0  0  0  0  0  0
   -4.1640    0.8355    0.0000 O   0  0  0  0  0  0  0  0  0  0  0  0
  1  2  2  0
  2  3  1  0
  3  4  1  0
  4  5  1  0
  5  6  1  0
  6  7  1  0
  7  8  1  0
  8  9  2  0
  8 10  1  0
  7 11  1  0
 11 12  1  0
 12 13  2  0
 12 14  1  0
  6  2  1  0
 11  4  1  0
M  END
>  <SMILES>  (32) 
O=C1CC2CC1C(C(=O)O)C2C(=O)O

>  <Formula>  (32) 
C9H10O5

>  <MW>  (32) 
198.17400000000001

>  <HeavyAtoms>  (32) 
14

>  <TotalAtoms>  (32) 
14

>  <FormalCharge>  (32) 
0

>  <CLogP>  (32) 
-0.0030000000000000001

>  <MolarRefractivity>  (32) 
43.472999999999999

>  <SP3Fraction>  (32) 
0.66700000000000004

>  <TPSA>  (32) 
91.670000000000002

>  <LabuteASA>  (32) 
79.719999999999999

>  <RotatableBonds>  (32) 
2

>  <LHBD>  (32) 
2

>  <HBD>  (32) 
2

>  <LHBA>  (32) 
5

>  <HBA>  (32) 
3

>  <TotalRings>  (32) 
2

>  <AromaticRings>  (32) 
0

>  <AromaticCarboCycles>  (32) 
0

>  <AromaticHeteroCycles>  (32) 
0

>  <AliphaticRings>  (32) 
2

>  <AliphaticCarboCycles>  (32) 
2

>  <AliphaticHeteroCycles>  (32) 
0

>  <Bridgehead>  (32) 
2

>  <Spiro>  (32) 
0

>  <LipinskiR3>  (32) 
1

>  <LipinskiR5>  (32) 
1

>  <Ghose>  (32) 
0

>  <Veber>  (32) 
1

>  <REOS>  (32) 
0

>  <Drug-like>  (32) 
1

>  <QED_MaxWeight>  (32) 
0.68200000000000005

>  <QED_MeanWeight>  (32) 
0.65100000000000002

>  <QED_NoWeight>  (32) 
0.64900000000000002

>  <Reference_Name>  (32) 
CHEMBL25

>  <Reference_SMILES>  (32) 
CC(=O)Oc1ccccc1C(=O)O

>  <Reference_Molecule_SMILES>  (32) 
CC(=O)Oc1ccccc1C(=O)O

>  <Morgan_Tanimoto_Distance>  (32) 
0.80769230769230771

>  <CATS_Euclidean_Distance>  (32) 
48.404545241123792

>  <Gobbi_2Dphp_Tanimoto_Distance>  (32) 
0.97619047619047616

>  <2Dphp_Tanimoto_Distance>  (32) 
0.75362318840579712

>  <Synthetic_Accessibility>  (32) 
4.4251025784802547

$$$$
CHEMBL25-Var2680
     RDKit          2D

 14 16  0  0  0  0  0  0  0  0999 V2000
   -2.9520   -4.6564    0.0000 O   0  0  0  0  0  0  0  0  0  0  0  0
   -2.6401   -3.1891    0.0000 C   0  0  0  0  0  0  0  0  0  0  0  0
   -3.7548   -2.1855    0.0000 O   0  0  0  0  0  0  0  0  0  0  0  0
   -1.2135   -2.7256    0.0000 C   0  0  0  0  0  0  0  0  0  0  0  0
   -0.7500   -4.1522    0.0000 C   0  0  0  0  0  0  0  0  0  0  0  0
    0.7500   -4.1522    0.0000 C   0  0  0  0  0  0  0  0  0  0  0  0
    1.2135   -2.7256    0.0000 C   0  0  0  0  0  0  0  0  0  0  0  0
   -0.0000   -3.6073    0.0000 C   0  0  0  0  0  0  0  0  0  0  0  0
    0.7500   -1.2990    0.0000 C   0  0  0  0  0  0  0  0  0  0  0  0
    1.5000    0.0000    0.0000 C   0  0  0  0  0  0  0  0  0  0  0  0
    0.7500    1.2990    0.0000 C   0  0  0  0  0  0  0  0  0  0  0  0
   -0.7500    1.2990    0.0000 C   0  0  0  0  0  0  0  0  0  0  0  0
   -1.5000    0.0000    0.0000 C   0  0  0  0  0  0  0  0  0  0  0  0
   -0.7500   -1.2990    0.0000 C   0  0  0  0  0  0  0  0  0  0  0  0
  1  2  2  0
  2  3  1  0
  2  4  1  0
  4  5  1  0
  5  6  2  0
  6  7  1  0
  7  8  1  0
  7  9  1  0
  9 10  2  0
 10 11  1  0
 11 12  2  0
 12 13  1  0
 13 14  2  0
  8  4  1  0
 14  9  1  0
 14  4  1  0
M  END
>  <SMILES>  (33) 
O=C(O)C12C=CC(C1)c1ccccc12

>  <Formula>  (33) 
C12H10O2

>  <MW>  (33) 
186.21000000000001

>  <HeavyAtoms>  (33) 
14

>  <TotalAtoms>  (33) 
14

>  <FormalCharge>  (33) 
0

>  <CLogP>  (33) 
2.0659999999999998

>  <MolarRefractivity>  (33) 
52.253999999999998

>  <SP3Fraction>  (33) 
0.25

>  <TPSA>  (33) 
37.299999999999997

>  <LabuteASA>  (33) 
81.876000000000005

>  <RotatableBonds>  (33) 
1

>  <LHBD>  (33) 
1

>  <HBD>  (33) 
1

>  <LHBA>  (33) 
2

>  <HBA>  (33) 
1

>  <TotalRings>  (33) 
3

>  <AromaticRings>  (33) 
1

>  <AromaticCarboCycles>  (33) 
1

>  <AromaticHeteroCycles>  (33) 
0

>  <AliphaticRings>  (33) 
2

>  <AliphaticCarboCycles>  (33) 
2

>  <AliphaticHeteroCycles>  (33) 
0

>  <Bridgehead>  (33) 
2

>  <Spiro>  (33) 
0

>  <LipinskiR3>  (33) 
1

>  <LipinskiR5>  (33) 
1

>  <Ghose>  (33) 
0

>  <Veber>  (33) 
1

>  <REOS>  (33) 
0

>  <Drug-like>  (33) 
1

>  <QED_MaxWeight>  (33) 
0.66200000000000003

>  <QED_MeanWeight>  (33) 
0.68100000000000005

>  <QED_NoWeight>  (33) 
0.751

>  <Reference_Name>  (33) 
CHEMBL25

>  <Reference_SMILES>  (33) 
CC(=O)Oc1ccccc1C(=O)O

>  <Reference_Molecule_SMILES>  (33) 
CC(=O)Oc1ccccc1C(=O)O

>  <Morgan_Tanimoto_Distance>  (33) 
0.70370370370370372

>  <CATS_Euclidean_Distance>  (33) 
21.213203435596427

>  <Gobbi_2Dphp_Tanimoto_Distance>  (33) 
0.84999999999999998

>  <2Dphp_Tanimoto_Distance>  (33) 
0.79629629629629628

>  <Synthetic_Accessibility>  (33) 
4.4096852141465872

$$$$
CHEMBL25-Var3556
     RDKit          2D

 11 12  0  0  0  0  0  0  0  0999 V2000
    3.5260    1.2990    0.0000 O   0  0  0  0  0  0  0  0  0  0  0  0
    2.7760    0.0000    0.0000 C   0  0  0  0  0  0  0  0  0  0  0  0
    3.6787   -1.1979    0.0000 O   0  0  0  0  0  0  0  0  0  0  0  0
    1.2760    0.0000    0.0000 C   0  0  0  0  0  0  0  0  0  0  0  0
    0.3943    1.2135    0.0000 C   0  0  0  0  0  0  0  0  0  0  0  0
   -1.0323    0.7500    0.0000 C   0  0  0  0  0  0  0  0  0  0  0  0
   -1.0323   -0.7500    0.0000 C   0  0  0  0  0  0  0  0  0  0  0  0
    0.3943   -1.2135    0.0000 C   0  0  0  0  0  0  0  0  0  0  0  0
    1.8209   -0.7500    0.0000 C   0  0  0  0  0  0  0  0  0  0  0  0
    2.9179   -1.7730    0.0000 O   0  0  0  0  0  0  0  0  0  0  0  0
    1.8209    0.7500    0.0000 C   0  0  0  0  0  0  0  0  0  0  0  0
  1  2  2  0
  2  3  1  0
  2  4  1  0
  4  5  1  0
  5  6  1  0
  6  7  1  0
  7  8  1  0
  8  9  1  0
  9 10  1  0
  9 11  1  0
  8  4  1  0
 11  5  1  0
M  END
>  <SMILES>  (34) 
O=C(O)C1C2CCC1C(O)C2

>  <Formula>  (34) 
C8H12O3

>  <MW>  (34) 
156.18100000000001

>  <HeavyAtoms>  (34) 
11

>  <TotalAtoms>  (34) 
11

>  <FormalCharge>  (34) 
0

>  <CLogP>  (34) 
0.47799999999999998

>  <MolarRefractivity>  (34) 
37.963999999999999

>  <SP3Fraction>  (34) 
0.875

>  <TPSA>  (34) 
57.530000000000001

>  <LabuteASA>  (34) 
65.031999999999996

>  <RotatableBonds>  (34) 
1

>  <LHBD>  (34) 
2

>  <HBD>  (34) 
2

>  <LHBA>  (34) 
3

>  <HBA>  (34) 
2

>  <TotalRings>  (34) 
2

>  <AromaticRings>  (34) 
0

>  <AromaticCarboCycles>  (34) 
0

>  <AromaticHeteroCycles>  (34) 
0

>  <AliphaticRings>  (34) 
2

>  <AliphaticCarboCycles>  (34) 
2

>  <AliphaticHeteroCycles>  (34) 
0

>  <Bridgehead>  (34) 
2

>  <Spiro>  (34) 
0

>  <LipinskiR3>  (34) 
1

>  <LipinskiR5>  (34) 
1

>  <Ghose>  (34) 
0

>  <Veber>  (34) 
1

>  <REOS>  (34) 
0

>  <Drug-like>  (34) 
1

>  <QED_MaxWeight>  (34) 
0.59799999999999998

>  <QED_MeanWeight>  (34) 
0.57999999999999996

>  <QED_NoWeight>  (34) 
0.64200000000000002

>  <Reference_Name>  (34) 
CHEMBL25

>  <Reference_SMILES>  (34) 
CC(=O)Oc1ccccc1C(=O)O

>  <Reference_Molecule_SMILES>  (34) 
CC(=O)Oc1ccccc1C(=O)O

>  <Morgan_Tanimoto_Distance>  (34) 
0.84615384615384615

>  <CATS_Euclidean_Distance>  (34) 
39.204591567825318

>  <Gobbi_2Dphp_Tanimoto_Distance>  (34) 
0.99390243902439024

>  <2Dphp_Tanimoto_Distance>  (34) 
0.71153846153846156

>  <Synthetic_Accessibility>  (34) 
4.3967451565281737

$$$$
CHEMBL25-Var2205
     RDKit          2D

 13 14  0  0  0  0  0  0  0  0999 V2000
    2.0494    0.1929    0.0000 C   0  0  0  0  0  0  0  0  0  0  0  0
    1.2760    0.0000    0.0000 N   0  0  0  0  0  0  0  0  0  0  0  0
    0.3943    1.2135    0.0000 C   0  0  0  0  0  0  0  0  0  0  0  0
   -1.0323    0.7500    0.0000 C   0  0  0  0  0  0  0  0  0  0  0  0
   -1.0323   -0.7500    0.0000 C   0  0  0  0  0  0  0  0  0  0  0  0
    0.3943   -1.2135    0.0000 C   0  0  0  0  0  0  0  0  0  0  0  0
    1.8943   -1.3846    0.0000 C   0  0  0  0  0  0  0  0  0  0  0  0
    2.6443   -2.6836    0.0000 C   0  0  0  0  0  0  0  0  0  0  0  0
    4.1443   -2.6836    0.0000 O   0  0  0  0  0  0  0  0  0  0  0  0
    1.8943   -3.9826    0.0000 O   0  0  0  0  0  0  0  0  0  0  0  0
    2.6443   -0.0855    0.0000 C   0  0  0  0  0  0  0  0  0  0  0  0
    4.1443   -0.0855    0.0000 O   0  0  0  0  0  0  0  0  0  0  0  0
    1.8943    1.2135    0.0000 C   0  0  0  0  0  0  0  0  0  0  0  0
  1  2  1  0
  2  3  1  0
  3  4  1  0
  4  5  1  0
  5  6  1  0
  6  7  1  0
  7  8  1  0
  8  9  2  0
  8 10  1  0
  7 11  1  0
 11 12  1  0
 11 13  1  0
  6  2  1  0
 13  3  1  0
M  END
>  <SMILES>  (35) 
CN1C2CCC1C(C(=O)O)C(O)C2

>  <Formula>  (35) 
C9H15NO3

>  <MW>  (35) 
185.22300000000001

>  <HeavyAtoms>  (35) 
13

>  <TotalAtoms>  (35) 
13

>  <FormalCharge>  (35) 
0

>  <CLogP>  (35) 
-0.085000000000000006

>  <MolarRefractivity>  (35) 
46.323

>  <SP3Fraction>  (35) 
0.88900000000000001

>  <TPSA>  (35) 
60.770000000000003

>  <LabuteASA>  (35) 
77.156999999999996

>  <RotatableBonds>  (35) 
1

>  <LHBD>  (35) 
2

>  <HBD>  (35) 
2

>  <LHBA>  (35) 
4

>  <HBA>  (35) 
3

>  <TotalRings>  (35) 
2

>  <AromaticRings>  (35) 
0

>  <AromaticCarboCycles>  (35) 
0

>  <AromaticHeteroCycles>  (35) 
0

>  <AliphaticRings>  (35) 
2

>  <AliphaticCarboCycles>  (35) 
0

>  <AliphaticHeteroCycles>  (35) 
2

>  <Bridgehead>  (35) 
2

>  <Spiro>  (35) 
0

>  <LipinskiR3>  (35) 
1

>  <LipinskiR5>  (35) 
1

>  <Ghose>  (35) 
0

>  <Veber>  (35) 
1

>  <REOS>  (35) 
0

>  <Drug-like>  (35) 
1

>  <QED_MaxWeight>  (35) 
0.625

>  <QED_MeanWeight>  (35) 
0.59899999999999998

>  <QED_NoWeight>  (35) 
0.64100000000000001

>  <Reference_Name>  (35) 
CHEMBL25

>  <Reference_SMILES>  (35) 
CC(=O)Oc1ccccc1C(=O)O

>  <Reference_Molecule_SMILES>  (35) 
CC(=O)Oc1ccccc1C(=O)O

>  <Morgan_Tanimoto_Distance>  (35) 
0.82758620689655171

>  <CATS_Euclidean_Distance>  (35) 
36.441734316577197

>  <Gobbi_2Dphp_Tanimoto_Distance>  (35) 
0.98106060606060608

>  <2Dphp_Tanimoto_Distance>  (35) 
0.79629629629629628

>  <Synthetic_Accessibility>  (35) 
4.3878535812287804

$$$$
CHEMBL25-Var3121
     RDKit          2D

 15 16  0  0  0  0  0  0  0  0999 V2000
    2.3907   -1.0037    0.0000 N   0  0  0  0  0  0  0  0  0  0  0  0
    1.2760    0.0000    0.0000 C   0  0  0  0  0  0  0  0  0  0  0  0
    2.3907    1.0037    0.0000 C   0  0  0  0  0  0  0  0  0  0  0  0
    2.0788    2.4709    0.0000 O   0  0  0  0  0  0  0  0  0  0  0  0
    3.8173    0.5402    0.0000 O   0  0  0  0  0  0  0  0  0  0  0  0
    0.3943    1.2135    0.0000 C   0  0  0  0  0  0  0  0  0  0  0  0
   -1.0323    0.7500    0.0000 C   0  0  0  0  0  0  0  0  0  0  0  0
   -2.4589    1.2135    0.0000 O   0  0  0  0  0  0  0  0  0  0  0  0
   -3.3405    0.0000    0.0000 N   0  0  0  0  0  0  0  0  0  0  0  0
   -2.4589   -1.2135    0.0000 C   0  0  0  0  0  0  0  0  0  0  0  0
   -2.9224   -2.6401    0.0000 C   0  0  0  0  0  0  0  0  0  0  0  0
   -1.9187   -3.7548    0.0000 O   0  0  0  0  0  0  0  0  0  0  0  0
   -4.3896   -2.9520    0.0000 O   0  0  0  0  0  0  0  0  0  0  0  0
   -1.0323   -0.7500    0.0000 C   0  0  0  0  0  0  0  0  0  0  0  0
    0.3943   -1.2135    0.0000 C   0  0  0  0  0  0  0  0  0  0  0  0
  1  2  1  0
  2  3  1  0
  3  4  2  0
  3  5  1  0
  2  6  1  0
  6  7  1  0
  7  8  1  0
  8  9  1  0
  9 10  2  0
 10 11  1  0
 11 12  2  0
 11 13  1  0
 10 14  1  0
 14 15  1  0
 15  2  1  0
 14  7  1  0
M  END
>  <SMILES>  (36) 
NC1(C(=O)O)CC2ON=C(C(=O)O)C2C1

>  <Formula>  (36) 
C8H10N2O5

>  <MW>  (36) 
214.17699999999999

>  <HeavyAtoms>  (36) 
15

>  <TotalAtoms>  (36) 
15

>  <FormalCharge>  (36) 
0

>  <CLogP>  (36) 
-0.98199999999999998

>  <MolarRefractivity>  (36) 
47.222000000000001

>  <SP3Fraction>  (36) 
0.625

>  <TPSA>  (36) 
122.20999999999999

>  <LabuteASA>  (36) 
84.495999999999995

>  <RotatableBonds>  (36) 
2

>  <LHBD>  (36) 
4

>  <HBD>  (36) 
3

>  <LHBA>  (36) 
7

>  <HBA>  (36) 
5

>  <TotalRings>  (36) 
2

>  <AromaticRings>  (36) 
0

>  <AromaticCarboCycles>  (36) 
0

>  <AromaticHeteroCycles>  (36) 
0

>  <AliphaticRings>  (36) 
2

>  <AliphaticCarboCycles>  (36) 
1

>  <AliphaticHeteroCycles>  (36) 
1

>  <Bridgehead>  (36) 
0

>  <Spiro>  (36) 
0

>  <LipinskiR3>  (36) 
0

>  <LipinskiR5>  (36) 
1

>  <Ghose>  (36) 
0

>  <Veber>  (36) 
1

>  <REOS>  (36) 
1

>  <Drug-like>  (36) 
1

>  <QED_MaxWeight>  (36) 
0.58499999999999996

>  <QED_MeanWeight>  (36) 
0.54200000000000004

>  <QED_NoWeight>  (36) 
0.496

>  <Reference_Name>  (36) 
CHEMBL25

>  <Reference_SMILES>  (36) 
CC(=O)Oc1ccccc1C(=O)O

>  <Reference_Molecule_SMILES>  (36) 
CC(=O)Oc1ccccc1C(=O)O

>  <Morgan_Tanimoto_Distance>  (36) 
0.80645161290322576

>  <CATS_Euclidean_Distance>  (36) 
41

>  <Gobbi_2Dphp_Tanimoto_Distance>  (36) 
0.97841726618705038

>  <2Dphp_Tanimoto_Distance>  (36) 
0.81632653061224492

>  <Synthetic_Accessibility>  (36) 
4.3746707991041731

$$$$
CHEMBL25-Var975
     RDKit          2D

 14 15  0  0  0  0  0  0  0  0999 V2000
   -4.9864    0.4115    0.0000 C   0  0  0  0  0  0  0  0  0  0  0  0
   -3.6161    1.0216    0.0000 C   0  0  0  0  0  0  0  0  0  0  0  0
   -3.4593    2.5134    0.0000 O   0  0  0  0  0  0  0  0  0  0  0  0
   -2.4026    0.1399    0.0000 O   0  0  0  0  0  0  0  0  0  0  0  0
   -1.0323    0.7500    0.0000 C   0  0  0  0  0  0  0  0  0  0  0  0
   -2.1470    1.7537    0.0000 C   0  0  0  0  0  0  0  0  0  0  0  0
   -1.8351    3.2209    0.0000 C   0  0  0  0  0  0  0  0  0  0  0  0
   -0.4086    3.6844    0.0000 C   0  0  0  0  0  0  0  0  0  0  0  0
   -0.0967    5.1517    0.0000 O   0  0  0  0  0  0  0  0  0  0  0  0
    0.7062    2.6807    0.0000 C   0  0  0  0  0  0  0  0  0  0  0  0
    0.3943    1.2135    0.0000 C   0  0  0  0  0  0  0  0  0  0  0  0
    1.2760    0.0000    0.0000 O   0  0  0  0  0  0  0  0  0  0  0  0
    0.3943   -1.2135    0.0000 C   0  0  0  0  0  0  0  0  0  0  0  0
   -1.0323   -0.7500    0.0000 C   0  0  0  0  0  0  0  0  0  0  0  0
  1  2  1  0
  2  3  2  0
  2  4  1  0
  4  5  1  0
  5  6  1  0
  6  7  2  0
  7  8  1  0
  8  9  1  0
  8 10  1  0
 10 11  1  0
 11 12  1  0
 12 13  1  0
 13 14  1  0
 11  5  1  0
 14  5  1  0
M  END
>  <SMILES>  (37) 
CC(=O)OC12C=CC(O)CC1OCC2

>  <Formula>  (37) 
C10H14O4

>  <MW>  (37) 
198.21799999999999

>  <HeavyAtoms>  (37) 
14

>  <TotalAtoms>  (37) 
14

>  <FormalCharge>  (37) 
0

>  <CLogP>  (37) 
0.39800000000000002

>  <MolarRefractivity>  (37) 
48.618000000000002

>  <SP3Fraction>  (37) 
0.69999999999999996

>  <TPSA>  (37) 
55.759999999999998

>  <LabuteASA>  (37) 
82.504999999999995

>  <RotatableBonds>  (37) 
1

>  <LHBD>  (37) 
1

>  <HBD>  (37) 
1

>  <LHBA>  (37) 
4

>  <HBA>  (37) 
4

>  <TotalRings>  (37) 
2

>  <AromaticRings>  (37) 
0

>  <AromaticCarboCycles>  (37) 
0

>  <AromaticHeteroCycles>  (37) 
0

>  <AliphaticRings>  (37) 
2

>  <AliphaticCarboCycles>  (37) 
1

>  <AliphaticHeteroCycles>  (37) 
1

>  <Bridgehead>  (37) 
0

>  <Spiro>  (37) 
0

>  <LipinskiR3>  (37) 
1

>  <LipinskiR5>  (37) 
1

>  <Ghose>  (37) 
0

>  <Veber>  (37) 
1

>  <REOS>  (37) 
0

>  <Drug-like>  (37) 
1

>  <QED_MaxWeight>  (37) 
0.45200000000000001

>  <QED_MeanWeight>  (37) 
0.48899999999999999

>  <QED_NoWeight>  (37) 
0.59899999999999998

>  <Reference_Name>  (37) 
CHEMBL25

>  <Reference_SMILES>  (37) 
CC(=O)Oc1ccccc1C(=O)O

>  <Reference_Molecule_SMILES>  (37) 
CC(=O)Oc1ccccc1C(=O)O

>  <Morgan_Tanimoto_Distance>  (37) 
0.74193548387096775

>  <CATS_Euclidean_Distance>  (37) 
36.455452267116371

>  <Gobbi_2Dphp_Tanimoto_Distance>  (37) 
0.94736842105263164

>  <2Dphp_Tanimoto_Distance>  (37) 
0.77142857142857146

>  <Synthetic_Accessibility>  (37) 
4.3381222304894358

$$$$
CHEMBL25-Var3229
     RDKit          2D

 13 14  0  0  0  0  0  0  0  0999 V2000
    1.2990   -3.3107    0.0000 N   0  0  0  0  0  0  0  0  0  0  0  0
   -0.0000   -2.5607    0.0000 C   0  0  0  0  0  0  0  0  0  0  0  0
   -1.2990   -3.3107    0.0000 C   0  0  0  0  0  0  0  0  0  0  0  0
   -2.5981   -2.5607    0.0000 O   0  0  0  0  0  0  0  0  0  0  0  0
   -1.2990   -4.8107    0.0000 O   0  0  0  0  0  0  0  0  0  0  0  0
   -0.0000   -1.0607    0.0000 C   0  0  0  0  0  0  0  0  0  0  0  0
    1.0607    0.0000    0.0000 C   0  0  0  0  0  0  0  0  0  0  0  0
    0.0000    1.0607    0.0000 C   0  0  0  0  0  0  0  0  0  0  0  0
    0.0000    2.5607    0.0000 C   0  0  0  0  0  0  0  0  0  0  0  0
   -1.2990    3.3107    0.0000 O   0  0  0  0  0  0  0  0  0  0  0  0
    1.2990    3.3107    0.0000 O   0  0  0  0  0  0  0  0  0  0  0  0
   -1.0607    0.0000    0.0000 C   0  0  0  0  0  0  0  0  0  0  0  0
   -0.3607    0.0000    0.0000 C   0  0  0  0  0  0  0  0  0  0  0  0
  1  2  1  0
  2  3  1  0
  3  4  2  0
  3  5  1  0
  2  6  1  0
  6  7  1  0
  7  8  1  0
  8  9  1  0
  9 10  2  0
  9 11  1  0
  8 12  1  0
  8 13  1  0
 12  6  1  0
 13  6  1  0
M  END
>  <SMILES>  (38) 
NC(C(=O)O)C12CC(C(=O)O)(C1)C2

>  <Formula>  (38) 
C8H11NO4

>  <MW>  (38) 
185.179

>  <HeavyAtoms>  (38) 
13

>  <TotalAtoms>  (38) 
13

>  <FormalCharge>  (38) 
0

>  <CLogP>  (38) 
-0.34699999999999998

>  <MolarRefractivity>  (38) 
41.963999999999999

>  <SP3Fraction>  (38) 
0.75

>  <TPSA>  (38) 
100.62

>  <LabuteASA>  (38) 
74.534000000000006

>  <RotatableBonds>  (38) 
3

>  <LHBD>  (38) 
4

>  <HBD>  (38) 
3

>  <LHBA>  (38) 
5

>  <HBA>  (38) 
3

>  <TotalRings>  (38) 
3

>  <AromaticRings>  (38) 
0

>  <AromaticCarboCycles>  (38) 
0

>  <AromaticHeteroCycles>  (38) 
0

>  <AliphaticRings>  (38) 
3

>  <AliphaticCarboCycles>  (38) 
3

>  <AliphaticHeteroCycles>  (38) 
0

>  <Bridgehead>  (38) 
2

>  <Spiro>  (38) 
0

>  <LipinskiR3>  (38) 
0

>  <LipinskiR5>  (38) 
1

>  <Ghose>  (38) 
0

>  <Veber>  (38) 
1

>  <REOS>  (38) 
0

>  <Drug-like>  (38) 
1

>  <QED_MaxWeight>  (38) 
0.58599999999999997

>  <QED_MeanWeight>  (38) 
0.55800000000000005

>  <QED_NoWeight>  (38) 
0.56100000000000005

>  <Reference_Name>  (38) 
CHEMBL25

>  <Reference_SMILES>  (38) 
CC(=O)Oc1ccccc1C(=O)O

>  <Reference_Molecule_SMILES>  (38) 
CC(=O)Oc1ccccc1C(=O)O

>  <Morgan_Tanimoto_Distance>  (38) 
0.85185185185185186

>  <CATS_Euclidean_Distance>  (38) 
40

>  <Gobbi_2Dphp_Tanimoto_Distance>  (38) 
0.9668874172185431

>  <2Dphp_Tanimoto_Distance>  (38) 
0.86111111111111116

>  <Synthetic_Accessibility>  (38) 
4.3311727313092572

$$$$
CHEMBL25-Var139
     RDKit          2D

 14 15  0  0  0  0  0  0  0  0999 V2000
   -0.9556    5.6449    0.0000 C   0  0  0  0  0  0  0  0  0  0  0  0
   -0.4921    4.2184    0.0000 C   0  0  0  0  0  0  0  0  0  0  0  0
    0.9751    3.9065    0.0000 O   0  0  0  0  0  0  0  0  0  0  0  0
   -1.4958    3.1036    0.0000 O   0  0  0  0  0  0  0  0  0  0  0  0
   -1.0323    1.6771    0.0000 C   0  0  0  0  0  0  0  0  0  0  0  0
    0.3943    1.2135    0.0000 C   0  0  0  0  0  0  0  0  0  0  0  0
    0.8578    2.6401    0.0000 C   0  0  0  0  0  0  0  0  0  0  0  0
    1.2760    0.0000    0.0000 C   0  0  0  0  0  0  0  0  0  0  0  0
    0.3943   -1.2135    0.0000 C   0  0  0  0  0  0  0  0  0  0  0  0
   -1.0323   -0.7500    0.0000 C   0  0  0  0  0  0  0  0  0  0  0  0
   -1.0323    0.7500    0.0000 C   0  0  0  0  0  0  0  0  0  0  0  0
   -1.9140    0.4635    0.0000 C   0  0  0  0  0  0  0  0  0  0  0  0
   -3.0287    1.4672    0.0000 C   0  0  0  0  0  0  0  0  0  0  0  0
   -3.0287   -0.5402    0.0000 C   0  0  0  0  0  0  0  0  0  0  0  0
  1  2  1  0
  2  3  2  0
  2  4  1  0
  4  5  1  0
  5  6  1  0
  6  7  1  0
  6  8  1  0
  8  9  1  0
  9 10  1  0
 10 11  1  0
 10 12  1  0
 12 13  1  0
 12 14  1  0
 12  5  1  0
 11  6  1  0
M  END
>  <SMILES>  (39) 
CC(=O)OC1C2(C)CCC(C2)C1(C)C

>  <Formula>  (39) 
C12H20O2

>  <MW>  (39) 
196.28999999999999

>  <HeavyAtoms>  (39) 
14

>  <TotalAtoms>  (39) 
14

>  <FormalCharge>  (39) 
0

>  <CLogP>  (39) 
2.7639999999999998

>  <MolarRefractivity>  (39) 
54.783000000000001

>  <SP3Fraction>  (39) 
0.91700000000000004

>  <TPSA>  (39) 
26.300000000000001

>  <LabuteASA>  (39) 
86.016999999999996

>  <RotatableBonds>  (39) 
1

>  <LHBD>  (39) 
0

>  <HBD>  (39) 
0

>  <LHBA>  (39) 
2

>  <HBA>  (39) 
2

>  <TotalRings>  (39) 
2

>  <AromaticRings>  (39) 
0

>  <AromaticCarboCycles>  (39) 
0

>  <AromaticHeteroCycles>  (39) 
0

>  <AliphaticRings>  (39) 
2

>  <AliphaticCarboCycles>  (39) 
2

>  <AliphaticHeteroCycles>  (39) 
0

>  <Bridgehead>  (39) 
2

>  <Spiro>  (39) 
0

>  <LipinskiR3>  (39) 
1

>  <LipinskiR5>  (39) 
1

>  <Ghose>  (39) 
0

>  <Veber>  (39) 
1

>  <REOS>  (39) 
0

>  <Drug-like>  (39) 
1

>  <QED_MaxWeight>  (39) 
0.59599999999999997

>  <QED_MeanWeight>  (39) 
0.60299999999999998

>  <QED_NoWeight>  (39) 
0.65500000000000003

>  <Reference_Name>  (39) 
CHEMBL25

>  <Reference_SMILES>  (39) 
CC(=O)Oc1ccccc1C(=O)O

>  <Reference_Molecule_SMILES>  (39) 
CC(=O)Oc1ccccc1C(=O)O

>  <Morgan_Tanimoto_Distance>  (39) 
0.7407407407407407

>  <CATS_Euclidean_Distance>  (39) 
35.369478367654786

>  <Gobbi_2Dphp_Tanimoto_Distance>  (39) 
0.98039215686274506

>  <2Dphp_Tanimoto_Distance>  (39) 
0.93023255813953487

>  <Synthetic_Accessibility>  (39) 
4.3257706269971647

$$$$
CHEMBL25-Var170
     RDKit          2D

 15 16  0  0  0  0  0  0  0  0999 V2000
   -4.3301   -6.0000    0.0000 C   0  0  0  0  0  0  0  0  0  0  0  0
   -3.0311   -5.2500    0.0000 C   0  0  0  0  0  0  0  0  0  0  0  0
   -1.7321   -6.0000    0.0000 O   0  0  0  0  0  0  0  0  0  0  0  0
   -3.0311   -3.7500    0.0000 C   0  0  0  0  0  0  0  0  0  0  0  0
   -1.7321   -3.0000    0.0000 C   0  0  0  0  0  0  0  0  0  0  0  0
   -1.7321   -1.5000    0.0000 C   0  0  0  0  0  0  0  0  0  0  0  0
   -3.0311   -0.7500    0.0000 C   0  0  0  0  0  0  0  0  0  0  0  0
   -3.5441   -2.1595    0.0000 C   0  0  0  0  0  0  0  0  0  0  0  0
   -4.5083   -0.4895    0.0000 C   0  0  0  0  0  0  0  0  0  0  0  0
   -3.0311    0.7500    0.0000 C   0  0  0  0  0  0  0  0  0  0  0  0
   -1.7321    1.5000    0.0000 C   0  0  0  0  0  0  0  0  0  0  0  0
   -0.4330    0.7500    0.0000 C   0  0  0  0  0  0  0  0  0  0  0  0
    0.8660    0.0000    0.0000 O   0  0  0  0  0  0  0  0  0  0  0  0
   -0.4330   -0.7500    0.0000 C   0  0  0  0  0  0  0  0  0  0  0  0
    0.3170   -2.0490    0.0000 C   0  0  0  0  0  0  0  0  0  0  0  0
  1  2  1  0
  2  3  2  0
  2  4  1  0
  4  5  2  3
  5  6  1  0
  6  7  1  0
  7  8  1  0
  7  9  1  0
  7 10  1  0
 10 11  1  0
 11 12  1  0
 12 13  1  0
 13 14  1  0
 14 15  1  0
 14  6  1  0
 14 12  1  0
M  END
>  <SMILES>  (40) 
CC(=O)C=CC1C(C)(C)CCC2OC21C

>  <Formula>  (40) 
C13H20O2

>  <MW>  (40) 
208.30099999999999

>  <HeavyAtoms>  (40) 
15

>  <TotalAtoms>  (40) 
15

>  <FormalCharge>  (40) 
0

>  <CLogP>  (40) 
2.7250000000000001

>  <MolarRefractivity>  (40) 
59.603999999999999

>  <SP3Fraction>  (40) 
0.76900000000000002

>  <TPSA>  (40) 
29.600000000000001

>  <LabuteASA>  (40) 
91.691999999999993

>  <RotatableBonds>  (40) 
2

>  <LHBD>  (40) 
0

>  <HBD>  (40) 
0

>  <LHBA>  (40) 
2

>  <HBA>  (40) 
2

>  <TotalRings>  (40) 
2

>  <AromaticRings>  (40) 
0

>  <AromaticCarboCycles>  (40) 
0

>  <AromaticHeteroCycles>  (40) 
0

>  <AliphaticRings>  (40) 
2

>  <AliphaticCarboCycles>  (40) 
1

>  <AliphaticHeteroCycles>  (40) 
1

>  <Bridgehead>  (40) 
0

>  <Spiro>  (40) 
0

>  <LipinskiR3>  (40) 
1

>  <LipinskiR5>  (40) 
1

>  <Ghose>  (40) 
0

>  <Veber>  (40) 
1

>  <REOS>  (40) 
1

>  <Drug-like>  (40) 
1

>  <QED_MaxWeight>  (40) 
0.46600000000000003

>  <QED_MeanWeight>  (40) 
0.51600000000000001

>  <QED_NoWeight>  (40) 
0.621

>  <Reference_Name>  (40) 
CHEMBL25

>  <Reference_SMILES>  (40) 
CC(=O)Oc1ccccc1C(=O)O

>  <Reference_Molecule_SMILES>  (40) 
CC(=O)Oc1ccccc1C(=O)O

>  <Morgan_Tanimoto_Distance>  (40) 
0.84375

>  <CATS_Euclidean_Distance>  (40) 
35.425979167836701

>  <Gobbi_2Dphp_Tanimoto_Distance>  (40) 
0.97499999999999998

>  <2Dphp_Tanimoto_Distance>  (40) 
0.93181818181818188

>  <Synthetic_Accessibility>  (40) 
4.3022519529503258

$$$$
CHEMBL25-Var3147
     RDKit          2D

 13 14  0  0  0  0  0  0  0  0999 V2000
   -0.0692    5.0672    0.0000 N   0  0  0  0  0  0  0  0  0  0  0  0
    0.3943    3.6406    0.0000 C   0  0  0  0  0  0  0  0  0  0  0  0
   -0.4874    2.4271    0.0000 C   0  0  0  0  0  0  0  0  0  0  0  0
    0.3943    1.2135    0.0000 C   0  0  0  0  0  0  0  0  0  0  0  0
    1.8209    1.6771    0.0000 C   0  0  0  0  0  0  0  0  0  0  0  0
    1.8209    3.1771    0.0000 C   0  0  0  0  0  0  0  0  0  0  0  0
    3.0344    4.0587    0.0000 C   0  0  0  0  0  0  0  0  0  0  0  0
    2.8776    5.5505    0.0000 O   0  0  0  0  0  0  0  0  0  0  0  0
    4.4047    3.4486    0.0000 O   0  0  0  0  0  0  0  0  0  0  0  0
    1.2760    0.0000    0.0000 O   0  0  0  0  0  0  0  0  0  0  0  0
    0.3943   -1.2135    0.0000 C   0  0  0  0  0  0  0  0  0  0  0  0
   -1.0323   -0.7500    0.0000 C   0  0  0  0  0  0  0  0  0  0  0  0
   -1.0323    0.7500    0.0000 O   0  0  0  0  0  0  0  0  0  0  0  0
  1  2  1  0
  2  3  1  0
  3  4  1  0
  4  5  1  0
  5  6  1  0
  6  7  1  0
  7  8  2  0
  7  9  1  0
  4 10  1  0
 10 11  1  0
 11 12  1  0
 12 13  1  0
  6  2  1  0
 13  4  1  0
M  END
>  <SMILES>  (41) 
NC1CC2(CC1C(=O)O)OCCO2

>  <Formula>  (41) 
C8H13NO4

>  <MW>  (41) 
187.19499999999999

>  <HeavyAtoms>  (41) 
13

>  <TotalAtoms>  (41) 
13

>  <FormalCharge>  (41) 
0

>  <CLogP>  (41) 
-0.44900000000000001

>  <MolarRefractivity>  (41) 
42.969999999999999

>  <SP3Fraction>  (41) 
0.875

>  <TPSA>  (41) 
81.780000000000001

>  <LabuteASA>  (41) 
75.805000000000007

>  <RotatableBonds>  (41) 
1

>  <LHBD>  (41) 
3

>  <HBD>  (41) 
2

>  <LHBA>  (41) 
5

>  <HBA>  (41) 
4

>  <TotalRings>  (41) 
2

>  <AromaticRings>  (41) 
0

>  <AromaticCarboCycles>  (41) 
0

>  <AromaticHeteroCycles>  (41) 
0

>  <AliphaticRings>  (41) 
2

>  <AliphaticCarboCycles>  (41) 
1

>  <AliphaticHeteroCycles>  (41) 
1

>  <Bridgehead>  (41) 
0

>  <Spiro>  (41) 
1

>  <LipinskiR3>  (41) 
1

>  <LipinskiR5>  (41) 
1

>  <Ghose>  (41) 
0

>  <Veber>  (41) 
1

>  <REOS>  (41) 
0

>  <Drug-like>  (41) 
1

>  <QED_MaxWeight>  (41) 
0.61399999999999999

>  <QED_MeanWeight>  (41) 
0.58099999999999996

>  <QED_NoWeight>  (41) 
0.59599999999999997

>  <Reference_Name>  (41) 
CHEMBL25

>  <Reference_SMILES>  (41) 
CC(=O)Oc1ccccc1C(=O)O

>  <Reference_Molecule_SMILES>  (41) 
CC(=O)Oc1ccccc1C(=O)O

>  <Morgan_Tanimoto_Distance>  (41) 
0.8214285714285714

>  <CATS_Euclidean_Distance>  (41) 
38.262252939417984

>  <Gobbi_2Dphp_Tanimoto_Distance>  (41) 
0.95620437956204385

>  <2Dphp_Tanimoto_Distance>  (41) 
0.7142857142857143

>  <Synthetic_Accessibility>  (41) 
4.2964991736169491

$$$$
CHEMBL25-Var3999
     RDKit          2D

 14 15  0  0  0  0  0  0  0  0999 V2000
    3.7500    1.2990    0.0000 O   0  0  0  0  0  0  0  0  0  0  0  0
    3.0000    0.0000    0.0000 C   0  0  0  0  0  0  0  0  0  0  0  0
    3.7500   -1.2990    0.0000 O   0  0  0  0  0  0  0  0  0  0  0  0
    0.3828   -0.5621    0.0000 C   0  0  0  0  0  0  0  0  0  0  0  0
    0.7500   -1.2990    0.0000 C   0  0  0  0  0  0  0  0  0  0  0  0
    1.5000    0.0000    0.0000 C   0  0  0  0  0  0  0  0  0  0  0  0
    0.7500    1.2990    0.0000 C   0  0  0  0  0  0  0  0  0  0  0  0
   -0.7500    1.2990    0.0000 C   0  0  0  0  0  0  0  0  0  0  0  0
   -1.5000    0.0000    0.0000 C   0  0  0  0  0  0  0  0  0  0  0  0
   -0.7500   -1.2990    0.0000 C   0  0  0  0  0  0  0  0  0  0  0  0
   -0.2954    0.6125    0.0000 C   0  0  0  0  0  0  0  0  0  0  0  0
    1.5000    2.5981    0.0000 C   0  0  0  0  0  0  0  0  0  0  0  0
    3.0000    2.5981    0.0000 O   0  0  0  0  0  0  0  0  0  0  0  0
    0.7500    3.8971    0.0000 O   0  0  0  0  0  0  0  0  0  0  0  0
  1  2  2  0
  2  3  1  0
  2  4  1  0
  4  5  1  0
  5  6  1  0
  6  7  2  0
  7  8  1  0
  8  9  1  0
  9 10  1  0
  8 11  1  0
 11 12  1  0
 12 13  2  0
 12 14  1  0
 11  4  1  0
 10  5  1  0
M  END
>  <SMILES>  (42) 
O=C(O)C1C2C=CC(CC2)C1C(=O)O

>  <Formula>  (42) 
C10H12O4

>  <MW>  (42) 
196.202

>  <HeavyAtoms>  (42) 
14

>  <TotalAtoms>  (42) 
14

>  <FormalCharge>  (42) 
0

>  <CLogP>  (42) 
0.98399999999999999

>  <MolarRefractivity>  (42) 
47.606000000000002

>  <SP3Fraction>  (42) 
0.59999999999999998

>  <TPSA>  (42) 
74.599999999999994

>  <LabuteASA>  (42) 
81.233999999999995

>  <RotatableBonds>  (42) 
2

>  <LHBD>  (42) 
2

>  <HBD>  (42) 
2

>  <LHBA>  (42) 
4

>  <HBA>  (42) 
2

>  <TotalRings>  (42) 
3

>  <AromaticRings>  (42) 
0

>  <AromaticCarboCycles>  (42) 
0

>  <AromaticHeteroCycles>  (42) 
0

>  <AliphaticRings>  (42) 
3

>  <AliphaticCarboCycles>  (42) 
3

>  <AliphaticHeteroCycles>  (42) 
0

>  <Bridgehead>  (42) 
2

>  <Spiro>  (42) 
0

>  <LipinskiR3>  (42) 
1

>  <LipinskiR5>  (42) 
1

>  <Ghose>  (42) 
0

>  <Veber>  (42) 
1

>  <REOS>  (42) 
0

>  <Drug-like>  (42) 
1

>  <QED_MaxWeight>  (42) 
0.64500000000000002

>  <QED_MeanWeight>  (42) 
0.64600000000000002

>  <QED_NoWeight>  (42) 
0.69599999999999995

>  <Reference_Name>  (42) 
CHEMBL25

>  <Reference_SMILES>  (42) 
CC(=O)Oc1ccccc1C(=O)O

>  <Reference_Molecule_SMILES>  (42) 
CC(=O)Oc1ccccc1C(=O)O

>  <Morgan_Tanimoto_Distance>  (42) 
0.78260869565217395

>  <CATS_Euclidean_Distance>  (42) 
44.788391353117383

>  <Gobbi_2Dphp_Tanimoto_Distance>  (42) 
0.99363057324840764

>  <2Dphp_Tanimoto_Distance>  (42) 
0.75

>  <Synthetic_Accessibility>  (42) 
4.2758733411457541

$$$$
CHEMBL25-Var4001
     RDKit          2D

 15 16  0  0  0  0  0  0  0  0999 V2000
    1.6721   -2.9883    0.0000 O   0  0  0  0  0  0  0  0  0  0  0  0
    0.2388   -2.5462    0.0000 C   0  0  0  0  0  0  0  0  0  0  0  0
   -0.8608   -3.5664    0.0000 O   0  0  0  0  0  0  0  0  0  0  0  0
   -0.2508   -0.4013    0.0000 C   0  0  0  0  0  0  0  0  0  0  0  0
   -1.5574   -0.7500    0.0000 C   0  0  0  0  0  0  0  0  0  0  0  0
   -1.5574    0.7500    0.0000 C   0  0  0  0  0  0  0  0  0  0  0  0
   -0.3846    1.6852    0.0000 C   0  0  0  0  0  0  0  0  0  0  0  0
    1.0777    1.3515    0.0000 C   0  0  0  0  0  0  0  0  0  0  0  0
    1.7286    0.0000    0.0000 C   0  0  0  0  0  0  0  0  0  0  0  0
    1.0777   -1.3515    0.0000 C   0  0  0  0  0  0  0  0  0  0  0  0
   -0.3846   -1.6852    0.0000 C   0  0  0  0  0  0  0  0  0  0  0  0
    0.4471    0.1552    0.0000 C   0  0  0  0  0  0  0  0  0  0  0  0
    2.4292   -0.7994    0.0000 C   0  0  0  0  0  0  0  0  0  0  0  0
    2.5413   -2.2952    0.0000 O   0  0  0  0  0  0  0  0  0  0  0  0
    3.6686    0.0456    0.0000 O   0  0  0  0  0  0  0  0  0  0  0  0
  1  2  2  0
  2  3  1  0
  2  4  1  0
  4  5  1  0
  5  6  1  0
  6  7  2  0
  7  8  1  0
  8  9  1  0
  9 10  1  0
 10 11  1  0
  8 12  1  0
 12 13  1  0
 13 14  2  0
 13 15  1  0
 12  4  1  0
 11  5  1  0
M  END
>  <SMILES>  (43) 
O=C(O)C1C2C=CC(CCC2)C1C(=O)O

>  <Formula>  (43) 
C11H14O4

>  <MW>  (43) 
210.22900000000001

>  <HeavyAtoms>  (43) 
15

>  <TotalAtoms>  (43) 
15

>  <FormalCharge>  (43) 
0

>  <CLogP>  (43) 
1.3740000000000001

>  <MolarRefractivity>  (43) 
52.222999999999999

>  <SP3Fraction>  (43) 
0.63600000000000001

>  <TPSA>  (43) 
74.599999999999994

>  <LabuteASA>  (43) 
87.599000000000004

>  <RotatableBonds>  (43) 
2

>  <LHBD>  (43) 
2

>  <HBD>  (43) 
2

>  <LHBA>  (43) 
4

>  <HBA>  (43) 
2

>  <TotalRings>  (43) 
3

>  <AromaticRings>  (43) 
0

>  <AromaticCarboCycles>  (43) 
0

>  <AromaticHeteroCycles>  (43) 
0

>  <AliphaticRings>  (43) 
3

>  <AliphaticCarboCycles>  (43) 
3

>  <AliphaticHeteroCycles>  (43) 
0

>  <Bridgehead>  (43) 
2

>  <Spiro>  (43) 
0

>  <LipinskiR3>  (43) 
1

>  <LipinskiR5>  (43) 
1

>  <Ghose>  (43) 
0

>  <Veber>  (43) 
1

>  <REOS>  (43) 
1

>  <Drug-like>  (43) 
1

>  <QED_MaxWeight>  (43) 
0.67200000000000004

>  <QED_MeanWeight>  (43) 
0.67500000000000004

>  <QED_NoWeight>  (43) 
0.72199999999999998

>  <Reference_Name>  (43) 
CHEMBL25

>  <Reference_SMILES>  (43) 
CC(=O)Oc1ccccc1C(=O)O

>  <Reference_Molecule_SMILES>  (43) 
CC(=O)Oc1ccccc1C(=O)O

>  <Morgan_Tanimoto_Distance>  (43) 
0.79166666666666663

>  <CATS_Euclidean_Distance>  (43) 
44.788391353117383

>  <Gobbi_2Dphp_Tanimoto_Distance>  (43) 
0.99435028248587576

>  <2Dphp_Tanimoto_Distance>  (43) 
0.75

>  <Synthetic_Accessibility>  (43) 
4.2722054437252925

$$$$
CHEMBL25-Var2392
     RDKit          2D

 14 15  0  0  0  0  0  0  0  0999 V2000
   -0.9556    5.6449    0.0000 C   0  0  0  0  0  0  0  0  0  0  0  0
   -0.4921    4.2184    0.0000 O   0  0  0  0  0  0  0  0  0  0  0  0
   -1.4958    3.1036    0.0000 C   0  0  0  0  0  0  0  0  0  0  0  0
   -2.9630    3.4155    0.0000 O   0  0  0  0  0  0  0  0  0  0  0  0
   -1.0323    1.6771    0.0000 C   0  0  0  0  0  0  0  0  0  0  0  0
    0.3943    1.2135    0.0000 C   0  0  0  0  0  0  0  0  0  0  0  0
    1.2760    0.0000    0.0000 C   0  0  0  0  0  0  0  0  0  0  0  0
    0.3943   -1.2135    0.0000 C   0  0  0  0  0  0  0  0  0  0  0  0
   -1.0323   -0.7500    0.0000 C   0  0  0  0  0  0  0  0  0  0  0  0
   -1.0323    0.7500    0.0000 O   0  0  0  0  0  0  0  0  0  0  0  0
   -1.9140    0.4635    0.0000 C   0  0  0  0  0  0  0  0  0  0  0  0
   -3.4140    0.4635    0.0000 C   0  0  0  0  0  0  0  0  0  0  0  0
   -4.1640   -0.8355    0.0000 O   0  0  0  0  0  0  0  0  0  0  0  0
   -4.1640    1.7626    0.0000 O   0  0  0  0  0  0  0  0  0  0  0  0
  1  2  1  0
  2  3  1  0
  3  4  2  0
  3  5  1  0
  5  6  1  0
  6  7  1  0
  7  8  1  0
  8  9  1  0
  9 10  1  0
  9 11  1  0
 11 12  1  0
 12 13  2  0
 12 14  1  0
 11  5  1  0
 10  6  1  0
M  END
>  <SMILES>  (44) 
COC(=O)C1C2CCC(O2)C1C(=O)O

>  <Formula>  (44) 
C9H12O5

>  <MW>  (44) 
200.19

>  <HeavyAtoms>  (44) 
14

>  <TotalAtoms>  (44) 
14

>  <FormalCharge>  (44) 
0

>  <CLogP>  (44) 
0.037999999999999999

>  <MolarRefractivity>  (44) 
44.527000000000001

>  <SP3Fraction>  (44) 
0.77800000000000002

>  <TPSA>  (44) 
72.829999999999998

>  <LabuteASA>  (44) 
80.991

>  <RotatableBonds>  (44) 
2

>  <LHBD>  (44) 
1

>  <HBD>  (44) 
1

>  <LHBA>  (44) 
5

>  <HBA>  (44) 
4

>  <TotalRings>  (44) 
2

>  <AromaticRings>  (44) 
0

>  <AromaticCarboCycles>  (44) 
0

>  <AromaticHeteroCycles>  (44) 
0

>  <AliphaticRings>  (44) 
2

>  <AliphaticCarboCycles>  (44) 
0

>  <AliphaticHeteroCycles>  (44) 
2

>  <Bridgehead>  (44) 
2

>  <Spiro>  (44) 
0

>  <LipinskiR3>  (44) 
1

>  <LipinskiR5>  (44) 
1

>  <Ghose>  (44) 
0

>  <Veber>  (44) 
1

>  <REOS>  (44) 
0

>  <Drug-like>  (44) 
1

>  <QED_MaxWeight>  (44) 
0.65000000000000002

>  <QED_MeanWeight>  (44) 
0.63700000000000001

>  <QED_NoWeight>  (44) 
0.66400000000000003

>  <Reference_Name>  (44) 
CHEMBL25

>  <Reference_SMILES>  (44) 
CC(=O)Oc1ccccc1C(=O)O

>  <Reference_Molecule_SMILES>  (44) 
CC(=O)Oc1ccccc1C(=O)O

>  <Morgan_Tanimoto_Distance>  (44) 
0.77777777777777779

>  <CATS_Euclidean_Distance>  (44) 
39.560080889704963

>  <Gobbi_2Dphp_Tanimoto_Distance>  (44) 
0.96571428571428575

>  <2Dphp_Tanimoto_Distance>  (44) 
0.54761904761904767

>  <Synthetic_Accessibility>  (44) 
4.2588972277854307

$$$$
CHEMBL25-Var2918
     RDKit          2D

 13 13  0  0  0  0  0  0  0  0999 V2000
    3.1160   -1.2990    0.0000 C   0  0  0  0  0  0  0  0  0  0  0  0
    2.3660    0.0000    0.0000 C   0  0  0  0  0  0  0  0  0  0  0  0
    0.8660    0.0000    0.0000 C   0  0  0  0  0  0  0  0  0  0  0  0
   -0.4330    0.7500    0.0000 C   0  0  0  0  0  0  0  0  0  0  0  0
   -1.1830    2.0490    0.0000 C   0  0  0  0  0  0  0  0  0  0  0  0
   -2.6830    2.0490    0.0000 O   0  0  0  0  0  0  0  0  0  0  0  0
   -0.4330    3.3481    0.0000 O   0  0  0  0  0  0  0  0  0  0  0  0
   -0.4330   -0.7500    0.0000 C   0  0  0  0  0  0  0  0  0  0  0  0
   -1.1830   -2.0490    0.0000 C   0  0  0  0  0  0  0  0  0  0  0  0
   -0.4330   -3.3481    0.0000 N   0  0  0  0  0  0  0  0  0  0  0  0
   -2.6830   -2.0490    0.0000 C   0  0  0  0  0  0  0  0  0  0  0  0
   -3.4330   -0.7500    0.0000 O   0  0  0  0  0  0  0  0  0  0  0  0
   -3.4330   -3.3481    0.0000 O   0  0  0  0  0  0  0  0  0  0  0  0
  1  2  2  0
  2  3  1  0
  3  4  1  0
  4  5  1  0
  5  6  2  0
  5  7  1  0
  4  8  1  0
  8  9  1  0
  9 10  1  0
  9 11  1  0
 11 12  2  0
 11 13  1  0
  8  3  1  0
M  END
>  <SMILES>  (45) 
C=CC1C(C(=O)O)C1C(N)C(=O)O

>  <Formula>  (45) 
C8H11NO4

>  <MW>  (45) 
185.179

>  <HeavyAtoms>  (45) 
13

>  <TotalAtoms>  (45) 
13

>  <FormalCharge>  (45) 
0

>  <CLogP>  (45) 
-0.46899999999999997

>  <MolarRefractivity>  (45) 
43.914000000000001

>  <SP3Fraction>  (45) 
0.5

>  <TPSA>  (45) 
100.62

>  <LabuteASA>  (45) 
74.849999999999994

>  <RotatableBonds>  (45) 
4

>  <LHBD>  (45) 
4

>  <HBD>  (45) 
3

>  <LHBA>  (45) 
5

>  <HBA>  (45) 
3

>  <TotalRings>  (45) 
1

>  <AromaticRings>  (45) 
0

>  <AromaticCarboCycles>  (45) 
0

>  <AromaticHeteroCycles>  (45) 
0

>  <AliphaticRings>  (45) 
1

>  <AliphaticCarboCycles>  (45) 
1

>  <AliphaticHeteroCycles>  (45) 
0

>  <Bridgehead>  (45) 
0

>  <Spiro>  (45) 
0

>  <LipinskiR3>  (45) 
0

>  <LipinskiR5>  (45) 
1

>  <Ghose>  (45) 
0

>  <Veber>  (45) 
1

>  <REOS>  (45) 
0

>  <Drug-like>  (45) 
1

>  <QED_MaxWeight>  (45) 
0.52800000000000002

>  <QED_MeanWeight>  (45) 
0.51400000000000001

>  <QED_NoWeight>  (45) 
0.53400000000000003

>  <Reference_Name>  (45) 
CHEMBL25

>  <Reference_SMILES>  (45) 
CC(=O)Oc1ccccc1C(=O)O

>  <Reference_Molecule_SMILES>  (45) 
CC(=O)Oc1ccccc1C(=O)O

>  <Morgan_Tanimoto_Distance>  (45) 
0.8666666666666667

>  <CATS_Euclidean_Distance>  (45) 
43.646305685590391

>  <Gobbi_2Dphp_Tanimoto_Distance>  (45) 
0.97706422018348627

>  <2Dphp_Tanimoto_Distance>  (45) 
0.86554621848739499

>  <Synthetic_Accessibility>  (45) 
4.254861154613943

$$$$
CHEMBL25-Var1619
     RDKit          2D

 13 14  0  0  0  0  0  0  0  0999 V2000
    2.6004    0.7041    0.0000 C   0  0  0  0  0  0  0  0  0  0  0  0
    1.2760    0.0000    0.0000 C   0  0  0  0  0  0  0  0  0  0  0  0
    2.6004   -0.7041    0.0000 C   0  0  0  0  0  0  0  0  0  0  0  0
    0.3943    1.2135    0.0000 C   0  0  0  0  0  0  0  0  0  0  0  0
   -1.0323    0.7500    0.0000 C   0  0  0  0  0  0  0  0  0  0  0  0
   -1.0323   -0.7500    0.0000 C   0  0  0  0  0  0  0  0  0  0  0  0
    0.3943   -1.2135    0.0000 C   0  0  0  0  0  0  0  0  0  0  0  0
    0.8578   -2.6401    0.0000 C   0  0  0  0  0  0  0  0  0  0  0  0
    2.3250   -2.9520    0.0000 O   0  0  0  0  0  0  0  0  0  0  0  0
   -0.1459   -3.7548    0.0000 O   0  0  0  0  0  0  0  0  0  0  0  0
    1.8209   -0.7500    0.0000 C   0  0  0  0  0  0  0  0  0  0  0  0
    3.0344   -1.6317    0.0000 O   0  0  0  0  0  0  0  0  0  0  0  0
    1.8209    0.7500    0.0000 C   0  0  0  0  0  0  0  0  0  0  0  0
  1  2  1  0
  2  3  1  0
  2  4  1  0
  4  5  1  0
  5  6  1  0
  6  7  1  0
  7  8  1  0
  8  9  2  0
  8 10  1  0
  7 11  1  0
 11 12  2  0
 11 13  1  0
  7  2  1  0
 13  4  1  0
M  END
>  <SMILES>  (46) 
CC1(C)C2CCC1(C(=O)O)C(=O)C2

>  <Formula>  (46) 
C10H14O3

>  <MW>  (46) 
182.21899999999999

>  <HeavyAtoms>  (46) 
13

>  <TotalAtoms>  (46) 
13

>  <FormalCharge>  (46) 
0

>  <CLogP>  (46) 
1.466

>  <MolarRefractivity>  (46) 
46.198

>  <SP3Fraction>  (46) 
0.80000000000000004

>  <TPSA>  (46) 
54.369999999999997

>  <LabuteASA>  (46) 
77.129000000000005

>  <RotatableBonds>  (46) 
1

>  <LHBD>  (46) 
1

>  <HBD>  (46) 
1

>  <LHBA>  (46) 
3

>  <HBA>  (46) 
2

>  <TotalRings>  (46) 
2

>  <AromaticRings>  (46) 
0

>  <AromaticCarboCycles>  (46) 
0

>  <AromaticHeteroCycles>  (46) 
0

>  <AliphaticRings>  (46) 
2

>  <AliphaticCarboCycles>  (46) 
2

>  <AliphaticHeteroCycles>  (46) 
0

>  <Bridgehead>  (46) 
2

>  <Spiro>  (46) 
0

>  <LipinskiR3>  (46) 
1

>  <LipinskiR5>  (46) 
1

>  <Ghose>  (46) 
0

>  <Veber>  (46) 
1

>  <REOS>  (46) 
0

>  <Drug-like>  (46) 
1

>  <QED_MaxWeight>  (46) 
0.621

>  <QED_MeanWeight>  (46) 
0.625

>  <QED_NoWeight>  (46) 
0.69899999999999995

>  <Reference_Name>  (46) 
CHEMBL25

>  <Reference_SMILES>  (46) 
CC(=O)Oc1ccccc1C(=O)O

>  <Reference_Molecule_SMILES>  (46) 
CC(=O)Oc1ccccc1C(=O)O

>  <Morgan_Tanimoto_Distance>  (46) 
0.7931034482758621

>  <CATS_Euclidean_Distance>  (46) 
35.411862419251548

>  <Gobbi_2Dphp_Tanimoto_Distance>  (46) 
0.91935483870967738

>  <2Dphp_Tanimoto_Distance>  (46) 
0.76086956521739135

>  <Synthetic_Accessibility>  (46) 
4.2210814146623719

$$$$
CHEMBL25-Var4003
     RDKit          2D

 13 14  0  0  0  0  0  0  0  0999 V2000
   -2.9630    3.4155    0.0000 O   0  0  0  0  0  0  0  0  0  0  0  0
   -1.4958    3.1036    0.0000 C   0  0  0  0  0  0  0  0  0  0  0  0
   -0.4921    4.2184    0.0000 O   0  0  0  0  0  0  0  0  0  0  0  0
   -1.0323    1.6771    0.0000 C   0  0  0  0  0  0  0  0  0  0  0  0
    0.3943    1.2135    0.0000 C   0  0  0  0  0  0  0  0  0  0  0  0
    1.2760    0.0000    0.0000 C   0  0  0  0  0  0  0  0  0  0  0  0
    0.3943   -1.2135    0.0000 C   0  0  0  0  0  0  0  0  0  0  0  0
   -1.0323   -0.7500    0.0000 C   0  0  0  0  0  0  0  0  0  0  0  0
   -1.0323    0.7500    0.0000 O   0  0  0  0  0  0  0  0  0  0  0  0
   -1.9140    0.4635    0.0000 C   0  0  0  0  0  0  0  0  0  0  0  0
   -3.4140    0.4635    0.0000 C   0  0  0  0  0  0  0  0  0  0  0  0
   -4.1640    1.7626    0.0000 O   0  0  0  0  0  0  0  0  0  0  0  0
   -4.1640   -0.8355    0.0000 O   0  0  0  0  0  0  0  0  0  0  0  0
  1  2  2  0
  2  3  1  0
  2  4  1  0
  4  5  1  0
  5  6  1  0
  6  7  1  0
  7  8  1  0
  8  9  1  0
  8 10  1  0
 10 11  1  0
 11 12  2  0
 11 13  1  0
 10  4  1  0
  9  5  1  0
M  END
>  <SMILES>  (47) 
O=C(O)C1C2CCC(O2)C1C(=O)O

>  <Formula>  (47) 
C8H10O5

>  <MW>  (47) 
186.16300000000001

>  <HeavyAtoms>  (47) 
13

>  <TotalAtoms>  (47) 
13

>  <FormalCharge>  (47) 
0

>  <CLogP>  (47) 
-0.050999999999999997

>  <MolarRefractivity>  (47) 
40.146999999999998

>  <SP3Fraction>  (47) 
0.75

>  <TPSA>  (47) 
83.829999999999998

>  <LabuteASA>  (47) 
74.307000000000002

>  <RotatableBonds>  (47) 
2

>  <LHBD>  (47) 
2

>  <HBD>  (47) 
2

>  <LHBA>  (47) 
5

>  <HBA>  (47) 
3

>  <TotalRings>  (47) 
2

>  <AromaticRings>  (47) 
0

>  <AromaticCarboCycles>  (47) 
0

>  <AromaticHeteroCycles>  (47) 
0

>  <AliphaticRings>  (47) 
2

>  <AliphaticCarboCycles>  (47) 
0

>  <AliphaticHeteroCycles>  (47) 
2

>  <Bridgehead>  (47) 
2

>  <Spiro>  (47) 
0

>  <LipinskiR3>  (47) 
1

>  <LipinskiR5>  (47) 
1

>  <Ghose>  (47) 
0

>  <Veber>  (47) 
1

>  <REOS>  (47) 
0

>  <Drug-like>  (47) 
1

>  <QED_MaxWeight>  (47) 
0.66100000000000003

>  <QED_MeanWeight>  (47) 
0.63100000000000001

>  <QED_NoWeight>  (47) 
0.64000000000000001

>  <Reference_Name>  (47) 
CHEMBL25

>  <Reference_SMILES>  (47) 
CC(=O)Oc1ccccc1C(=O)O

>  <Reference_Molecule_SMILES>  (47) 
CC(=O)Oc1ccccc1C(=O)O

>  <Morgan_Tanimoto_Distance>  (47) 
0.83333333333333337

>  <CATS_Euclidean_Distance>  (47) 
40.484564959994323

>  <Gobbi_2Dphp_Tanimoto_Distance>  (47) 
0.97340425531914898

>  <2Dphp_Tanimoto_Distance>  (47) 
0.64150943396226423

>  <Synthetic_Accessibility>  (47) 
4.2172650098002089

$$$$
CHEMBL25-Var2259
     RDKit          2D

 11 11  0  0  0  0  0  0  0  0999 V2000
    3.0000    0.0000    0.0000 C   0  0  0  0  0  0  0  0  0  0  0  0
    1.5000    0.0000    0.0000 C   0  0  0  0  0  0  0  0  0  0  0  0
    0.7500   -1.2990    0.0000 N   0  0  0  0  0  0  0  0  0  0  0  0
   -0.7500   -1.2990    0.0000 C   0  0  0  0  0  0  0  0  0  0  0  0
   -1.5000    0.0000    0.0000 C   0  0  0  0  0  0  0  0  0  0  0  0
   -3.0000    0.0000    0.0000 O   0  0  0  0  0  0  0  0  0  0  0  0
   -0.7500    1.2990    0.0000 C   0  0  0  0  0  0  0  0  0  0  0  0
   -1.5000    2.5981    0.0000 C   0  0  0  0  0  0  0  0  0  0  0  0
   -3.0000    2.5981    0.0000 O   0  0  0  0  0  0  0  0  0  0  0  0
   -0.7500    3.8971    0.0000 O   0  0  0  0  0  0  0  0  0  0  0  0
    0.7500    1.2990    0.0000 N   0  0  0  0  0  0  0  0  0  0  0  0
  1  2  1  0
  2  3  2  0
  3  4  1  0
  4  5  1  0
  5  6  1  0
  5  7  1  0
  7  8  1  0
  8  9  2  0
  8 10  1  0
  7 11  1  0
 11  2  1  0
M  END
>  <SMILES>  (48) 
CC1=NCC(O)C(C(=O)O)N1

>  <Formula>  (48) 
C6H10N2O3

>  <MW>  (48) 
158.15700000000001

>  <HeavyAtoms>  (48) 
11

>  <TotalAtoms>  (48) 
11

>  <FormalCharge>  (48) 
0

>  <CLogP>  (48) 
-1.1779999999999999

>  <MolarRefractivity>  (48) 
38.542000000000002

>  <SP3Fraction>  (48) 
0.66700000000000004

>  <TPSA>  (48) 
81.920000000000002

>  <LabuteASA>  (48) 
63.753

>  <RotatableBonds>  (48) 
1

>  <LHBD>  (48) 
3

>  <HBD>  (48) 
3

>  <LHBA>  (48) 
5

>  <HBA>  (48) 
4

>  <TotalRings>  (48) 
1

>  <AromaticRings>  (48) 
0

>  <AromaticCarboCycles>  (48) 
0

>  <AromaticHeteroCycles>  (48) 
0

>  <AliphaticRings>  (48) 
1

>  <AliphaticCarboCycles>  (48) 
0

>  <AliphaticHeteroCycles>  (48) 
1

>  <Bridgehead>  (48) 
0

>  <Spiro>  (48) 
0

>  <LipinskiR3>  (48) 
1

>  <LipinskiR5>  (48) 
1

>  <Ghose>  (48) 
0

>  <Veber>  (48) 
1

>  <REOS>  (48) 
0

>  <Drug-like>  (48) 
1

>  <QED_MaxWeight>  (48) 
0.47899999999999998

>  <QED_MeanWeight>  (48) 
0.44800000000000001

>  <QED_NoWeight>  (48) 
0.48799999999999999

>  <Reference_Name>  (48) 
CHEMBL25

>  <Reference_SMILES>  (48) 
CC(=O)Oc1ccccc1C(=O)O

>  <Reference_Molecule_SMILES>  (48) 
CC(=O)Oc1ccccc1C(=O)O

>  <Morgan_Tanimoto_Distance>  (48) 
0.7931034482758621

>  <CATS_Euclidean_Distance>  (48) 
36.796738985948195

>  <Gobbi_2Dphp_Tanimoto_Distance>  (48) 
0.96226415094339623

>  <2Dphp_Tanimoto_Distance>  (48) 
0.875

>  <Synthetic_Accessibility>  (48) 
4.215015972805622

$$$$
CHEMBL25-Var155
     RDKit          2D

 15 16  0  0  0  0  0  0  0  0999 V2000
    7.5000    2.5981    0.0000 C   0  0  0  0  0  0  0  0  0  0  0  0
    6.0000    2.5981    0.0000 C   0  0  0  0  0  0  0  0  0  0  0  0
    5.2500    3.8971    0.0000 O   0  0  0  0  0  0  0  0  0  0  0  0
    5.2500    1.2990    0.0000 O   0  0  0  0  0  0  0  0  0  0  0  0
    3.7500    1.2990    0.0000 C   0  0  0  0  0  0  0  0  0  0  0  0
    3.0000    0.0000    0.0000 C   0  0  0  0  0  0  0  0  0  0  0  0
    1.5000    0.0000    0.0000 C   0  0  0  0  0  0  0  0  0  0  0  0
    0.7500   -1.2990    0.0000 C   0  0  0  0  0  0  0  0  0  0  0  0
   -0.7500   -1.2990    0.0000 C   0  0  0  0  0  0  0  0  0  0  0  0
   -1.5000    0.0000    0.0000 C   0  0  0  0  0  0  0  0  0  0  0  0
   -0.7500    1.2990    0.0000 C   0  0  0  0  0  0  0  0  0  0  0  0
    0.7500    1.2990    0.0000 C   0  0  0  0  0  0  0  0  0  0  0  0
   -0.0000   -0.0000    0.0000 C   0  0  0  0  0  0  0  0  0  0  0  0
    0.0763   -1.0908    0.0000 C   0  0  0  0  0  0  0  0  0  0  0  0
    0.9065   -0.6115    0.0000 C   0  0  0  0  0  0  0  0  0  0  0  0
  1  2  1  0
  2  3  2  0
  2  4  1  0
  4  5  1  0
  5  6  1  0
  6  7  1  0
  7  8  2  0
  8  9  1  0
  9 10  1  0
 10 11  1  0
 11 12  1  0
 12 13  1  0
 13 14  1  0
 13 15  1  0
 12  7  1  0
 13 10  1  0
M  END
>  <SMILES>  (49) 
CC(=O)OCCC1=CCC2CC1C2(C)C

>  <Formula>  (49) 
C13H20O2

>  <MW>  (49) 
208.30099999999999

>  <HeavyAtoms>  (49) 
15

>  <TotalAtoms>  (49) 
15

>  <FormalCharge>  (49) 
0

>  <CLogP>  (49) 
2.9319999999999999

>  <MolarRefractivity>  (49) 
59.328000000000003

>  <SP3Fraction>  (49) 
0.76900000000000002

>  <TPSA>  (49) 
26.300000000000001

>  <LabuteASA>  (49) 
91.691999999999993

>  <RotatableBonds>  (49) 
3

>  <LHBD>  (49) 
0

>  <HBD>  (49) 
0

>  <LHBA>  (49) 
2

>  <HBA>  (49) 
2

>  <TotalRings>  (49) 
3

>  <AromaticRings>  (49) 
0

>  <AromaticCarboCycles>  (49) 
0

>  <AromaticHeteroCycles>  (49) 
0

>  <AliphaticRings>  (49) 
3

>  <AliphaticCarboCycles>  (49) 
3

>  <AliphaticHeteroCycles>  (49) 
0

>  <Bridgehead>  (49) 
2

>  <Spiro>  (49) 
0

>  <LipinskiR3>  (49) 
1

>  <LipinskiR5>  (49) 
1

>  <Ghose>  (49) 
0

>  <Veber>  (49) 
1

>  <REOS>  (49) 
1

>  <Drug-like>  (49) 
1

>  <QED_MaxWeight>  (49) 
0.47699999999999998

>  <QED_MeanWeight>  (49) 
0.52600000000000002

>  <QED_NoWeight>  (49) 
0.625

>  <Reference_Name>  (49) 
CHEMBL25

>  <Reference_SMILES>  (49) 
CC(=O)Oc1ccccc1C(=O)O

>  <Reference_Molecule_SMILES>  (49) 
CC(=O)Oc1ccccc1C(=O)O

>  <Morgan_Tanimoto_Distance>  (49) 
0.70967741935483875

>  <CATS_Euclidean_Distance>  (49) 
34.756294393965533

>  <Gobbi_2Dphp_Tanimoto_Distance>  (49) 
0.98333333333333328

>  <2Dphp_Tanimoto_Distance>  (49) 
0.9375

>  <Synthetic_Accessibility>  (49) 
4.1959401956636189

$$$$
CHEMBL25-Var3997
     RDKit          2D

 13 14  0  0  0  0  0  0  0  0999 V2000
   -2.9630    3.4155    0.0000 O   0  0  0  0  0  0  0  0  0  0  0  0
   -1.4958    3.1036    0.0000 C   0  0  0  0  0  0  0  0  0  0  0  0
   -0.4921    4.2184    0.0000 O   0  0  0  0  0  0  0  0  0  0  0  0
   -1.0323    1.6771    0.0000 C   0  0  0  0  0  0  0  0  0  0  0  0
    0.3943    1.2135    0.0000 C   0  0  0  0  0  0  0  0  0  0  0  0
    1.2760    0.0000    0.0000 C   0  0  0  0  0  0  0  0  0  0  0  0
    0.3943   -1.2135    0.0000 C   0  0  0  0  0  0  0  0  0  0  0  0
   -1.0323   -0.7500    0.0000 C   0  0  0  0  0  0  0  0  0  0  0  0
   -1.0323    0.7500    0.0000 C   0  0  0  0  0  0  0  0  0  0  0  0
   -1.9140    0.4635    0.0000 C   0  0  0  0  0  0  0  0  0  0  0  0
   -3.4140    0.4635    0.0000 C   0  0  0  0  0  0  0  0  0  0  0  0
   -4.1640    1.7626    0.0000 O   0  0  0  0  0  0  0  0  0  0  0  0
   -4.1640   -0.8355    0.0000 O   0  0  0  0  0  0  0  0  0  0  0  0
  1  2  2  0
  2  3  1  0
  2  4  1  0
  4  5  1  0
  5  6  1  0
  6  7  2  0
  7  8  1  0
  8  9  1  0
  8 10  1  0
 10 11  1  0
 11 12  2  0
 11 13  1  0
 10  4  1  0
  9  5  1  0
M  END
>  <SMILES>  (50) 
O=C(O)C1C2C=CC(C2)C1C(=O)O

>  <Formula>  (50) 
C9H10O4

>  <MW>  (50) 
182.17500000000001

>  <HeavyAtoms>  (50) 
13

>  <TotalAtoms>  (50) 
13

>  <FormalCharge>  (50) 
0

>  <CLogP>  (50) 
0.59399999999999997

>  <MolarRefractivity>  (50) 
42.988999999999997

>  <SP3Fraction>  (50) 
0.55600000000000005

>  <TPSA>  (50) 
74.599999999999994

>  <LabuteASA>  (50) 
74.869

>  <RotatableBonds>  (50) 
2

>  <LHBD>  (50) 
2

>  <HBD>  (50) 
2

>  <LHBA>  (50) 
4

>  <HBA>  (50) 
2

>  <TotalRings>  (50) 
2

>  <AromaticRings>  (50) 
0

>  <AromaticCarboCycles>  (50) 
0

>  <AromaticHeteroCycles>  (50) 
0

>  <AliphaticRings>  (50) 
2

>  <AliphaticCarboCycles>  (50) 
2

>  <AliphaticHeteroCycles>  (50) 
0

>  <Bridgehead>  (50) 
2

>  <Spiro>  (50) 
0

>  <LipinskiR3>  (50) 
1

>  <LipinskiR5>  (50) 
1

>  <Ghose>  (50) 
0

>  <Veber>  (50) 
1

>  <REOS>  (50) 
0

>  <Drug-like>  (50) 
1

>  <QED_MaxWeight>  (50) 
0.61599999999999999

>  <QED_MeanWeight>  (50) 
0.61299999999999999

>  <QED_NoWeight>  (50) 
0.66600000000000004

>  <Reference_Name>  (50) 
CHEMBL25

>  <Reference_SMILES>  (50) 
CC(=O)Oc1ccccc1C(=O)O

>  <Reference_Molecule_SMILES>  (50) 
CC(=O)Oc1ccccc1C(=O)O

>  <Morgan_Tanimoto_Distance>  (50) 
0.78260869565217395

>  <CATS_Euclidean_Distance>  (50) 
44.966654311834233

>  <Gobbi_2Dphp_Tanimoto_Distance>  (50) 
0.9921875

>  <2Dphp_Tanimoto_Distance>  (50) 
0.75

>  <Synthetic_Accessibility>  (50) 
4.1876105043057033

$$$$
CHEMBL25-Var2402
     RDKit          2D

 15 16  0  0  0  0  0  0  0  0999 V2000
    0.0481    6.7597    0.0000 C   0  0  0  0  0  0  0  0  0  0  0  0
   -0.9556    5.6449    0.0000 C   0  0  0  0  0  0  0  0  0  0  0  0
   -0.4921    4.2184    0.0000 O   0  0  0  0  0  0  0  0  0  0  0  0
   -1.4958    3.1036    0.0000 C   0  0  0  0  0  0  0  0  0  0  0  0
   -2.9630    3.4155    0.0000 O   0  0  0  0  0  0  0  0  0  0  0  0
   -1.0323    1.6771    0.0000 C   0  0  0  0  0  0  0  0  0  0  0  0
    0.3943    1.2135    0.0000 C   0  0  0  0  0  0  0  0  0  0  0  0
    1.2760    0.0000    0.0000 C   0  0  0  0  0  0  0  0  0  0  0  0
    0.3943   -1.2135    0.0000 C   0  0  0  0  0  0  0  0  0  0  0  0
   -1.0323   -0.7500    0.0000 C   0  0  0  0  0  0  0  0  0  0  0  0
   -1.0323    0.7500    0.0000 O   0  0  0  0  0  0  0  0  0  0  0  0
   -1.9140    0.4635    0.0000 C   0  0  0  0  0  0  0  0  0  0  0  0
   -3.4140    0.4635    0.0000 C   0  0  0  0  0  0  0  0  0  0  0  0
   -4.1640   -0.8355    0.0000 O   0  0  0  0  0  0  0  0  0  0  0  0
   -4.1640    1.7626    0.0000 O   0  0  0  0  0  0  0  0  0  0  0  0
  1  2  1  0
  2  3  1  0
  3  4  1  0
  4  5  2  0
  4  6  1  0
  6  7  1  0
  7  8  1  0
  8  9  1  0
  9 10  1  0
 10 11  1  0
 10 12  1  0
 12 13  1  0
 13 14  2  0
 13 15  1  0
 12  6  1  0
 11  7  1  0
M  END
>  <SMILES>  (51) 
CCOC(=O)C1C2CCC(O2)C1C(=O)O

>  <Formula>  (51) 
C10H14O5

>  <MW>  (51) 
214.21700000000001

>  <HeavyAtoms>  (51) 
15

>  <TotalAtoms>  (51) 
15

>  <FormalCharge>  (51) 
0

>  <CLogP>  (51) 
0.42799999999999999

>  <MolarRefractivity>  (51) 
49.143999999999998

>  <SP3Fraction>  (51) 
0.80000000000000004

>  <TPSA>  (51) 
72.829999999999998

>  <LabuteASA>  (51) 
87.355999999999995

>  <RotatableBonds>  (51) 
3

>  <LHBD>  (51) 
1

>  <HBD>  (51) 
1

>  <LHBA>  (51) 
5

>  <HBA>  (51) 
4

>  <TotalRings>  (51) 
2

>  <AromaticRings>  (51) 
0

>  <AromaticCarboCycles>  (51) 
0

>  <AromaticHeteroCycles>  (51) 
0

>  <AliphaticRings>  (51) 
2

>  <AliphaticCarboCycles>  (51) 
0

>  <AliphaticHeteroCycles>  (51) 
2

>  <Bridgehead>  (51) 
2

>  <Spiro>  (51) 
0

>  <LipinskiR3>  (51) 
1

>  <LipinskiR5>  (51) 
1

>  <Ghose>  (51) 
0

>  <Veber>  (51) 
1

>  <REOS>  (51) 
1

>  <Drug-like>  (51) 
1

>  <QED_MaxWeight>  (51) 
0.69799999999999995

>  <QED_MeanWeight>  (51) 
0.68899999999999995

>  <QED_NoWeight>  (51) 
0.70999999999999996

>  <Reference_Name>  (51) 
CHEMBL25

>  <Reference_SMILES>  (51) 
CC(=O)Oc1ccccc1C(=O)O

>  <Reference_Molecule_SMILES>  (51) 
CC(=O)Oc1ccccc1C(=O)O

>  <Morgan_Tanimoto_Distance>  (51) 
0.7931034482758621

>  <CATS_Euclidean_Distance>  (51) 
39.560080889704963

>  <Gobbi_2Dphp_Tanimoto_Distance>  (51) 
0.96571428571428575

>  <2Dphp_Tanimoto_Distance>  (51) 
0.54761904761904767

>  <Synthetic_Accessibility>  (51) 
4.1860688583594374

$$$$
CHEMBL25-Var3283
     RDKit          2D

 11 11  0  0  0  0  0  0  0  0999 V2000
    3.5260    1.2990    0.0000 N   0  0  0  0  0  0  0  0  0  0  0  0
    2.7760    0.0000    0.0000 C   0  0  0  0  0  0  0  0  0  0  0  0
    3.5260   -1.2990    0.0000 C   0  0  0  0  0  0  0  0  0  0  0  0
    2.7760   -2.5981    0.0000 O   0  0  0  0  0  0  0  0  0  0  0  0
    5.0260   -1.2990    0.0000 O   0  0  0  0  0  0  0  0  0  0  0  0
    1.2760    0.0000    0.0000 C   0  0  0  0  0  0  0  0  0  0  0  0
    0.3943    1.2135    0.0000 C   0  0  0  0  0  0  0  0  0  0  0  0
   -1.0323    0.7500    0.0000 C   0  0  0  0  0  0  0  0  0  0  0  0
   -2.2458    1.6317    0.0000 O   0  0  0  0  0  0  0  0  0  0  0  0
   -1.0323   -0.7500    0.0000 N   0  0  0  0  0  0  0  0  0  0  0  0
    0.3943   -1.2135    0.0000 O   0  0  0  0  0  0  0  0  0  0  0  0
  1  2  1  0
  2  3  1  0
  3  4  2  0
  3  5  1  0
  2  6  1  0
  6  7  1  0
  7  8  1  0
  8  9  2  0
  8 10  1  0
 10 11  1  0
 11  6  1  0
M  END
>  <SMILES>  (52) 
NC(C(=O)O)C1CC(=O)NO1

>  <Formula>  (52) 
C5H8N2O4

>  <MW>  (52) 
160.12899999999999

>  <HeavyAtoms>  (52) 
11

>  <TotalAtoms>  (52) 
11

>  <FormalCharge>  (52) 
0

>  <CLogP>  (52) 
-1.782

>  <MolarRefractivity>  (52) 
33.244

>  <SP3Fraction>  (52) 
0.59999999999999998

>  <TPSA>  (52) 
101.65000000000001

>  <LabuteASA>  (52) 
62.268000000000001

>  <RotatableBonds>  (52) 
2

>  <LHBD>  (52) 
4

>  <HBD>  (52) 
3

>  <LHBA>  (52) 
6

>  <HBA>  (52) 
4

>  <TotalRings>  (52) 
1

>  <AromaticRings>  (52) 
0

>  <AromaticCarboCycles>  (52) 
0

>  <AromaticHeteroCycles>  (52) 
0

>  <AliphaticRings>  (52) 
1

>  <AliphaticCarboCycles>  (52) 
0

>  <AliphaticHeteroCycles>  (52) 
1

>  <Bridgehead>  (52) 
0

>  <Spiro>  (52) 
0

>  <LipinskiR3>  (52) 
0

>  <LipinskiR5>  (52) 
1

>  <Ghose>  (52) 
0

>  <Veber>  (52) 
1

>  <REOS>  (52) 
0

>  <Drug-like>  (52) 
1

>  <QED_MaxWeight>  (52) 
0.48499999999999999

>  <QED_MeanWeight>  (52) 
0.443

>  <QED_NoWeight>  (52) 
0.45000000000000001

>  <Reference_Name>  (52) 
CHEMBL25

>  <Reference_SMILES>  (52) 
CC(=O)Oc1ccccc1C(=O)O

>  <Reference_Molecule_SMILES>  (52) 
CC(=O)Oc1ccccc1C(=O)O

>  <Morgan_Tanimoto_Distance>  (52) 
0.83870967741935487

>  <CATS_Euclidean_Distance>  (52) 
38.483762809787713

>  <Gobbi_2Dphp_Tanimoto_Distance>  (52) 
0.92753623188405798

>  <2Dphp_Tanimoto_Distance>  (52) 
0.81159420289855078

>  <Synthetic_Accessibility>  (52) 
4.179980429039043

$$$$
CHEMBL25-Var974
     RDKit          2D

 14 15  0  0  0  0  0  0  0  0999 V2000
   -4.9864    0.4115    0.0000 C   0  0  0  0  0  0  0  0  0  0  0  0
   -3.6161    1.0216    0.0000 C   0  0  0  0  0  0  0  0  0  0  0  0
   -3.4593    2.5134    0.0000 O   0  0  0  0  0  0  0  0  0  0  0  0
   -2.4026    0.1399    0.0000 O   0  0  0  0  0  0  0  0  0  0  0  0
   -1.0323    0.7500    0.0000 C   0  0  0  0  0  0  0  0  0  0  0  0
   -2.1470    1.7537    0.0000 C   0  0  0  0  0  0  0  0  0  0  0  0
   -1.8351    3.2209    0.0000 C   0  0  0  0  0  0  0  0  0  0  0  0
   -0.4086    3.6844    0.0000 C   0  0  0  0  0  0  0  0  0  0  0  0
   -0.0967    5.1517    0.0000 O   0  0  0  0  0  0  0  0  0  0  0  0
    0.7062    2.6807    0.0000 C   0  0  0  0  0  0  0  0  0  0  0  0
    0.3943    1.2135    0.0000 C   0  0  0  0  0  0  0  0  0  0  0  0
    1.2760    0.0000    0.0000 O   0  0  0  0  0  0  0  0  0  0  0  0
    0.3943   -1.2135    0.0000 C   0  0  0  0  0  0  0  0  0  0  0  0
   -1.0323   -0.7500    0.0000 C   0  0  0  0  0  0  0  0  0  0  0  0
  1  2  1  0
  2  3  2  0
  2  4  1  0
  4  5  1  0
  5  6  1  0
  6  7  2  0
  7  8  1  0
  8  9  2  0
  8 10  1  0
 10 11  1  0
 11 12  1  0
 12 13  1  0
 13 14  1  0
 11  5  1  0
 14  5  1  0
M  END
>  <SMILES>  (53) 
CC(=O)OC12C=CC(=O)CC1OCC2

>  <Formula>  (53) 
C10H12O4

>  <MW>  (53) 
196.202

>  <HeavyAtoms>  (53) 
14

>  <TotalAtoms>  (53) 
14

>  <FormalCharge>  (53) 
0

>  <CLogP>  (53) 
0.60599999999999998

>  <MolarRefractivity>  (53) 
47.618000000000002

>  <SP3Fraction>  (53) 
0.59999999999999998

>  <TPSA>  (53) 
52.600000000000001

>  <LabuteASA>  (53) 
81.873000000000005

>  <RotatableBonds>  (53) 
1

>  <LHBD>  (53) 
0

>  <HBD>  (53) 
0

>  <LHBA>  (53) 
4

>  <HBA>  (53) 
4

>  <TotalRings>  (53) 
2

>  <AromaticRings>  (53) 
0

>  <AromaticCarboCycles>  (53) 
0

>  <AromaticHeteroCycles>  (53) 
0

>  <AliphaticRings>  (53) 
2

>  <AliphaticCarboCycles>  (53) 
1

>  <AliphaticHeteroCycles>  (53) 
1

>  <Bridgehead>  (53) 
0

>  <Spiro>  (53) 
0

>  <LipinskiR3>  (53) 
1

>  <LipinskiR5>  (53) 
1

>  <Ghose>  (53) 
0

>  <Veber>  (53) 
1

>  <REOS>  (53) 
0

>  <Drug-like>  (53) 
1

>  <QED_MaxWeight>  (53) 
0.57599999999999996

>  <QED_MeanWeight>  (53) 
0.57599999999999996

>  <QED_NoWeight>  (53) 
0.64000000000000001

>  <Reference_Name>  (53) 
CHEMBL25

>  <Reference_SMILES>  (53) 
CC(=O)Oc1ccccc1C(=O)O

>  <Reference_Molecule_SMILES>  (53) 
CC(=O)Oc1ccccc1C(=O)O

>  <Morgan_Tanimoto_Distance>  (53) 
0.70967741935483875

>  <CATS_Euclidean_Distance>  (53) 
36.262928728937489

>  <Gobbi_2Dphp_Tanimoto_Distance>  (53) 
0.95238095238095233

>  <2Dphp_Tanimoto_Distance>  (53) 
0.88235294117647056

>  <Synthetic_Accessibility>  (53) 
4.1797040981442155

$$$$
CHEMBL25-Var3143
     RDKit          2D

 13 13  0  0  0  0  0  0  0  0999 V2000
    2.7760    0.0000    0.0000 N   0  0  0  0  0  0  0  0  0  0  0  0
    1.2760    0.0000    0.0000 C   0  0  0  0  0  0  0  0  0  0  0  0
    0.3943    1.2135    0.0000 C   0  0  0  0  0  0  0  0  0  0  0  0
   -1.0323    0.7500    0.0000 C   0  0  0  0  0  0  0  0  0  0  0  0
   -2.2458    1.6317    0.0000 C   0  0  0  0  0  0  0  0  0  0  0  0
   -3.6161    1.0216    0.0000 O   0  0  0  0  0  0  0  0  0  0  0  0
   -2.0890    3.1235    0.0000 O   0  0  0  0  0  0  0  0  0  0  0  0
   -1.0323   -0.7500    0.0000 C   0  0  0  0  0  0  0  0  0  0  0  0
    0.3943   -1.2135    0.0000 C   0  0  0  0  0  0  0  0  0  0  0  0
    0.8578   -2.6401    0.0000 C   0  0  0  0  0  0  0  0  0  0  0  0
    1.3213   -4.0667    0.0000 F   0  0  0  0  0  0  0  0  0  0  0  0
   -0.5688   -3.1036    0.0000 F   0  0  0  0  0  0  0  0  0  0  0  0
    2.2844   -2.1766    0.0000 F   0  0  0  0  0  0  0  0  0  0  0  0
  1  2  1  0
  2  3  1  0
  3  4  1  0
  4  5  1  0
  5  6  2  0
  5  7  1  0
  4  8  1  0
  8  9  2  0
  9 10  1  0
 10 11  1  0
 10 12  1  0
 10 13  1  0
  9  2  1  0
M  END
>  <SMILES>  (54) 
NC1CC(C(=O)O)C=C1C(F)(F)F

>  <Formula>  (54) 
C7H8F3NO2

>  <MW>  (54) 
195.13999999999999

>  <HeavyAtoms>  (54) 
13

>  <TotalAtoms>  (54) 
13

>  <FormalCharge>  (54) 
0

>  <CLogP>  (54) 
0.90700000000000003

>  <MolarRefractivity>  (54) 
37.856000000000002

>  <SP3Fraction>  (54) 
0.57099999999999995

>  <TPSA>  (54) 
63.32

>  <LabuteASA>  (54) 
72.025999999999996

>  <RotatableBonds>  (54) 
1

>  <LHBD>  (54) 
3

>  <HBD>  (54) 
2

>  <LHBA>  (54) 
3

>  <HBA>  (54) 
2

>  <TotalRings>  (54) 
1

>  <AromaticRings>  (54) 
0

>  <AromaticCarboCycles>  (54) 
0

>  <AromaticHeteroCycles>  (54) 
0

>  <AliphaticRings>  (54) 
1

>  <AliphaticCarboCycles>  (54) 
1

>  <AliphaticHeteroCycles>  (54) 
0

>  <Bridgehead>  (54) 
0

>  <Spiro>  (54) 
0

>  <LipinskiR3>  (54) 
1

>  <LipinskiR5>  (54) 
1

>  <Ghose>  (54) 
0

>  <Veber>  (54) 
1

>  <REOS>  (54) 
0

>  <Drug-like>  (54) 
1

>  <QED_MaxWeight>  (54) 
0.60899999999999999

>  <QED_MeanWeight>  (54) 
0.61099999999999999

>  <QED_NoWeight>  (54) 
0.68000000000000005

>  <Reference_Name>  (54) 
CHEMBL25

>  <Reference_SMILES>  (54) 
CC(=O)Oc1ccccc1C(=O)O

>  <Reference_Molecule_SMILES>  (54) 
CC(=O)Oc1ccccc1C(=O)O

>  <Morgan_Tanimoto_Distance>  (54) 
0.80000000000000004

>  <CATS_Euclidean_Distance>  (54) 
35.944401511222857

>  <Gobbi_2Dphp_Tanimoto_Distance>  (54) 
0.92452830188679247

>  <2Dphp_Tanimoto_Distance>  (54) 
0.84210526315789469

>  <Synthetic_Accessibility>  (54) 
4.1761055432570302

$$$$
CHEMBL25-Var4004
     RDKit          2D

 12 13  0  0  0  0  0  0  0  0999 V2000
    3.5260    1.2990    0.0000 O   0  0  0  0  0  0  0  0  0  0  0  0
    2.7760    0.0000    0.0000 C   0  0  0  0  0  0  0  0  0  0  0  0
    3.5260   -1.2990    0.0000 O   0  0  0  0  0  0  0  0  0  0  0  0
    1.2760    0.0000    0.0000 C   0  0  0  0  0  0  0  0  0  0  0  0
    0.3943    1.2135    0.0000 N   0  0  0  0  0  0  0  0  0  0  0  0
   -1.0323    0.7500    0.0000 C   0  0  0  0  0  0  0  0  0  0  0  0
   -1.0323   -0.7500    0.0000 C   0  0  0  0  0  0  0  0  0  0  0  0
   -0.7204   -2.2172    0.0000 C   0  0  0  0  0  0  0  0  0  0  0  0
   -1.1839   -3.6438    0.0000 C   0  0  0  0  0  0  0  0  0  0  0  0
   -0.1802   -4.7585    0.0000 O   0  0  0  0  0  0  0  0  0  0  0  0
   -2.6512   -3.9557    0.0000 O   0  0  0  0  0  0  0  0  0  0  0  0
    0.3943   -1.2135    0.0000 C   0  0  0  0  0  0  0  0  0  0  0  0
  1  2  2  0
  2  3  1  0
  2  4  1  0
  4  5  1  0
  5  6  1  0
  6  7  1  0
  7  8  1  0
  8  9  1  0
  9 10  2  0
  9 11  1  0
  8 12  1  0
 12  4  1  0
 12  7  1  0
M  END
>  <SMILES>  (55) 
O=C(O)C1NCC2C(C(=O)O)C12

>  <Formula>  (55) 
C7H9NO4

>  <MW>  (55) 
171.15199999999999

>  <HeavyAtoms>  (55) 
12

>  <TotalAtoms>  (55) 
12

>  <FormalCharge>  (55) 
0

>  <CLogP>  (55) 
-1.01

>  <MolarRefractivity>  (55) 
37.531999999999996

>  <SP3Fraction>  (55) 
0.71399999999999997

>  <TPSA>  (55) 
86.629999999999995

>  <LabuteASA>  (55) 
68.379000000000005

>  <RotatableBonds>  (55) 
2

>  <LHBD>  (55) 
3

>  <HBD>  (55) 
3

>  <LHBA>  (55) 
5

>  <HBA>  (55) 
3

>  <TotalRings>  (55) 
2

>  <AromaticRings>  (55) 
0

>  <AromaticCarboCycles>  (55) 
0

>  <AromaticHeteroCycles>  (55) 
0

>  <AliphaticRings>  (55) 
2

>  <AliphaticCarboCycles>  (55) 
1

>  <AliphaticHeteroCycles>  (55) 
1

>  <Bridgehead>  (55) 
0

>  <Spiro>  (55) 
0

>  <LipinskiR3>  (55) 
1

>  <LipinskiR5>  (55) 
1

>  <Ghose>  (55) 
0

>  <Veber>  (55) 
1

>  <REOS>  (55) 
0

>  <Drug-like>  (55) 
1

>  <QED_MaxWeight>  (55) 
0.52800000000000002

>  <QED_MeanWeight>  (55) 
0.495

>  <QED_NoWeight>  (55) 
0.51400000000000001

>  <Reference_Name>  (55) 
CHEMBL25

>  <Reference_SMILES>  (55) 
CC(=O)Oc1ccccc1C(=O)O

>  <Reference_Molecule_SMILES>  (55) 
CC(=O)Oc1ccccc1C(=O)O

>  <Morgan_Tanimoto_Distance>  (55) 
0.84615384615384615

>  <CATS_Euclidean_Distance>  (55) 
42.261093218230876

>  <Gobbi_2Dphp_Tanimoto_Distance>  (55) 
0.98113207547169812

>  <2Dphp_Tanimoto_Distance>  (55) 
0.82795698924731176

>  <Synthetic_Accessibility>  (55) 
4.1748163751038643

$$$$
CHEMBL25-Var2265
     RDKit          2D

 12 12  0  0  0  0  0  0  0  0999 V2000
    3.3107   -1.2990    0.0000 C   0  0  0  0  0  0  0  0  0  0  0  0
    2.5607    0.0000    0.0000 C   0  0  0  0  0  0  0  0  0  0  0  0
    3.3107    1.2990    0.0000 O   0  0  0  0  0  0  0  0  0  0  0  0
    1.0607    0.0000    0.0000 C   0  0  0  0  0  0  0  0  0  0  0  0
   -0.0000   -1.0607    0.0000 C   0  0  0  0  0  0  0  0  0  0  0  0
   -0.0000   -2.5607    0.0000 O   0  0  0  0  0  0  0  0  0  0  0  0
   -1.0607    0.0000    0.0000 N   0  0  0  0  0  0  0  0  0  0  0  0
    0.0000    1.0607    0.0000 C   0  0  0  0  0  0  0  0  0  0  0  0
    0.0000    2.5607    0.0000 C   0  0  0  0  0  0  0  0  0  0  0  0
    1.2990    3.3107    0.0000 C   0  0  0  0  0  0  0  0  0  0  0  0
    2.5981    2.5607    0.0000 O   0  0  0  0  0  0  0  0  0  0  0  0
    1.2990    4.8107    0.0000 O   0  0  0  0  0  0  0  0  0  0  0  0
  1  2  1  0
  2  3  1  0
  2  4  1  0
  4  5  1  0
  5  6  2  0
  5  7  1  0
  7  8  1  0
  8  9  2  3
  9 10  1  0
 10 11  2  0
 10 12  1  0
  8  4  1  0
M  END
>  <SMILES>  (56) 
CC(O)C1C(=O)NC1=CC(=O)O

>  <Formula>  (56) 
C7H9NO4

>  <MW>  (56) 
171.15199999999999

>  <HeavyAtoms>  (56) 
12

>  <TotalAtoms>  (56) 
12

>  <FormalCharge>  (56) 
0

>  <CLogP>  (56) 
-0.91800000000000004

>  <MolarRefractivity>  (56) 
39.031999999999996

>  <SP3Fraction>  (56) 
0.42899999999999999

>  <TPSA>  (56) 
86.629999999999995

>  <LabuteASA>  (56) 
68.694999999999993

>  <RotatableBonds>  (56) 
2

>  <LHBD>  (56) 
3

>  <HBD>  (56) 
3

>  <LHBA>  (56) 
5

>  <HBA>  (56) 
3

>  <TotalRings>  (56) 
1

>  <AromaticRings>  (56) 
0

>  <AromaticCarboCycles>  (56) 
0

>  <AromaticHeteroCycles>  (56) 
0

>  <AliphaticRings>  (56) 
1

>  <AliphaticCarboCycles>  (56) 
0

>  <AliphaticHeteroCycles>  (56) 
1

>  <Bridgehead>  (56) 
0

>  <Spiro>  (56) 
0

>  <LipinskiR3>  (56) 
1

>  <LipinskiR5>  (56) 
1

>  <Ghose>  (56) 
0

>  <Veber>  (56) 
1

>  <REOS>  (56) 
0

>  <Drug-like>  (56) 
1

>  <QED_MaxWeight>  (56) 
0.35099999999999998

>  <QED_MeanWeight>  (56) 
0.37

>  <QED_NoWeight>  (56) 
0.45500000000000002

>  <Reference_Name>  (56) 
CHEMBL25

>  <Reference_SMILES>  (56) 
CC(=O)Oc1ccccc1C(=O)O

>  <Reference_Molecule_SMILES>  (56) 
CC(=O)Oc1ccccc1C(=O)O

>  <Morgan_Tanimoto_Distance>  (56) 
0.80000000000000004

>  <CATS_Euclidean_Distance>  (56) 
35.986108430893161

>  <Gobbi_2Dphp_Tanimoto_Distance>  (56) 
0.83544303797468356

>  <2Dphp_Tanimoto_Distance>  (56) 
0.73333333333333339

>  <Synthetic_Accessibility>  (56) 
4.1642037453621104

$$$$
CHEMBL25-Var3792
     RDKit          2D

 14 14  0  0  0  0  0  0  0  0999 V2000
    3.7500    1.2990    0.0000 O   0  0  0  0  0  0  0  0  0  0  0  0
    3.0000    0.0000    0.0000 C   0  0  0  0  0  0  0  0  0  0  0  0
    3.7500   -1.2990    0.0000 O   0  0  0  0  0  0  0  0  0  0  0  0
    1.5000    0.0000    0.0000 C   0  0  0  0  0  0  0  0  0  0  0  0
    0.7500   -1.2990    0.0000 N   0  0  0  0  0  0  0  0  0  0  0  0
   -0.7500   -1.2990    0.0000 C   0  0  0  0  0  0  0  0  0  0  0  0
   -1.5000   -2.5981    0.0000 C   0  0  0  0  0  0  0  0  0  0  0  0
   -3.0000   -2.5981    0.0000 O   0  0  0  0  0  0  0  0  0  0  0  0
   -1.5000    0.0000    0.0000 C   0  0  0  0  0  0  0  0  0  0  0  0
   -3.0000    0.0000    0.0000 O   0  0  0  0  0  0  0  0  0  0  0  0
   -0.7500    1.2990    0.0000 C   0  0  0  0  0  0  0  0  0  0  0  0
   -1.5000    2.5981    0.0000 O   0  0  0  0  0  0  0  0  0  0  0  0
    0.7500    1.2990    0.0000 C   0  0  0  0  0  0  0  0  0  0  0  0
    1.5000    2.5981    0.0000 O   0  0  0  0  0  0  0  0  0  0  0  0
  1  2  2  0
  2  3  1  0
  2  4  1  0
  4  5  1  0
  5  6  1  0
  6  7  1  0
  7  8  1  0
  6  9  1  0
  9 10  1  0
  9 11  1  0
 11 12  1  0
 11 13  1  0
 13 14  1  0
 13  4  1  0
M  END
>  <SMILES>  (57) 
O=C(O)C1NC(CO)C(O)C(O)C1O

>  <Formula>  (57) 
C7H13NO6

>  <MW>  (57) 
207.18199999999999

>  <HeavyAtoms>  (57) 
14

>  <TotalAtoms>  (57) 
14

>  <FormalCharge>  (57) 
0

>  <CLogP>  (57) 
-3.5139999999999998

>  <MolarRefractivity>  (57) 
43.454000000000001

>  <SP3Fraction>  (57) 
0.85699999999999998

>  <TPSA>  (57) 
130.25

>  <LabuteASA>  (57) 
79.605999999999995

>  <RotatableBonds>  (57) 
2

>  <LHBD>  (57) 
6

>  <HBD>  (57) 
6

>  <LHBA>  (57) 
7

>  <HBA>  (57) 
6

>  <TotalRings>  (57) 
1

>  <AromaticRings>  (57) 
0

>  <AromaticCarboCycles>  (57) 
0

>  <AromaticHeteroCycles>  (57) 
0

>  <AliphaticRings>  (57) 
1

>  <AliphaticCarboCycles>  (57) 
0

>  <AliphaticHeteroCycles>  (57) 
1

>  <Bridgehead>  (57) 
0

>  <Spiro>  (57) 
0

>  <LipinskiR3>  (57) 
0

>  <LipinskiR5>  (57) 
0

>  <Ghose>  (57) 
0

>  <Veber>  (57) 
1

>  <REOS>  (57) 
0

>  <Drug-like>  (57) 
0

>  <QED_MaxWeight>  (57) 
0.311

>  <QED_MeanWeight>  (57) 
0.27700000000000002

>  <QED_NoWeight>  (57) 
0.254

>  <Reference_Name>  (57) 
CHEMBL25

>  <Reference_SMILES>  (57) 
CC(=O)Oc1ccccc1C(=O)O

>  <Reference_Molecule_SMILES>  (57) 
CC(=O)Oc1ccccc1C(=O)O

>  <Morgan_Tanimoto_Distance>  (57) 
0.85185185185185186

>  <CATS_Euclidean_Distance>  (57) 
45.912961132995989

>  <Gobbi_2Dphp_Tanimoto_Distance>  (57) 
0.98269230769230764

>  <2Dphp_Tanimoto_Distance>  (57) 
0.83333333333333337

>  <Synthetic_Accessibility>  (57) 
4.1477053939156443

$$$$
CHEMBL25-Var513
     RDKit          2D

 14 14  0  0  0  0  0  0  0  0999 V2000
    5.0260    1.2990    0.0000 C   0  0  0  0  0  0  0  0  0  0  0  0
    3.5260    1.2990    0.0000 C   0  0  0  0  0  0  0  0  0  0  0  0
    2.7760    0.0000    0.0000 O   0  0  0  0  0  0  0  0  0  0  0  0
    1.2760    0.0000    0.0000 C   0  0  0  0  0  0  0  0  0  0  0  0
    0.3943    1.2135    0.0000 O   0  0  0  0  0  0  0  0  0  0  0  0
   -1.0323    0.7500    0.0000 C   0  0  0  0  0  0  0  0  0  0  0  0
   -2.2458    1.6317    0.0000 O   0  0  0  0  0  0  0  0  0  0  0  0
   -1.0323   -0.7500    0.0000 C   0  0  0  0  0  0  0  0  0  0  0  0
   -1.3442   -2.2172    0.0000 C   0  0  0  0  0  0  0  0  0  0  0  0
   -2.5241   -0.5932    0.0000 C   0  0  0  0  0  0  0  0  0  0  0  0
   -3.1342    0.7771    0.0000 C   0  0  0  0  0  0  0  0  0  0  0  0
   -3.4057   -1.8067    0.0000 O   0  0  0  0  0  0  0  0  0  0  0  0
    0.3943   -1.2135    0.0000 C   0  0  0  0  0  0  0  0  0  0  0  0
    0.8578   -2.6401    0.0000 C   0  0  0  0  0  0  0  0  0  0  0  0
  1  2  1  0
  2  3  1  0
  3  4  1  0
  4  5  1  0
  5  6  1  0
  6  7  2  0
  6  8  1  0
  8  9  1  0
  8 10  1  0
 10 11  1  0
 10 12  2  0
  8 13  1  0
 13 14  1  0
 13  4  1  0
M  END
>  <SMILES>  (58) 
CCOC1OC(=O)C(C)(C(C)=O)C1C

>  <Formula>  (58) 
C10H16O4

>  <MW>  (58) 
200.23400000000001

>  <HeavyAtoms>  (58) 
14

>  <TotalAtoms>  (58) 
14

>  <FormalCharge>  (58) 
0

>  <CLogP>  (58) 
1.137

>  <MolarRefractivity>  (58) 
49.457999999999998

>  <SP3Fraction>  (58) 
0.80000000000000004

>  <TPSA>  (58) 
52.600000000000001

>  <LabuteASA>  (58) 
83.567999999999998

>  <RotatableBonds>  (58) 
3

>  <LHBD>  (58) 
0

>  <HBD>  (58) 
0

>  <LHBA>  (58) 
4

>  <HBA>  (58) 
4

>  <TotalRings>  (58) 
1

>  <AromaticRings>  (58) 
0

>  <AromaticCarboCycles>  (58) 
0

>  <AromaticHeteroCycles>  (58) 
0

>  <AliphaticRings>  (58) 
1

>  <AliphaticCarboCycles>  (58) 
0

>  <AliphaticHeteroCycles>  (58) 
1

>  <Bridgehead>  (58) 
0

>  <Spiro>  (58) 
0

>  <LipinskiR3>  (58) 
1

>  <LipinskiR5>  (58) 
1

>  <Ghose>  (58) 
0

>  <Veber>  (58) 
1

>  <REOS>  (58) 
0

>  <Drug-like>  (58) 
1

>  <QED_MaxWeight>  (58) 
0.46000000000000002

>  <QED_MeanWeight>  (58) 
0.50600000000000001

>  <QED_NoWeight>  (58) 
0.61899999999999999

>  <Reference_Name>  (58) 
CHEMBL25

>  <Reference_SMILES>  (58) 
CC(=O)Oc1ccccc1C(=O)O

>  <Reference_Molecule_SMILES>  (58) 
CC(=O)Oc1ccccc1C(=O)O

>  <Morgan_Tanimoto_Distance>  (58) 
0.78125

>  <CATS_Euclidean_Distance>  (58) 
34.985711369071801

>  <Gobbi_2Dphp_Tanimoto_Distance>  (58) 
0.95348837209302328

>  <2Dphp_Tanimoto_Distance>  (58) 
0.80555555555555558

>  <Synthetic_Accessibility>  (58) 
4.1208098044539323

$$$$
CHEMBL25-Var149
     RDKit          2D

 13 14  0  0  0  0  0  0  0  0999 V2000
   -3.7548   -2.1855    0.0000 C   0  0  0  0  0  0  0  0  0  0  0  0
   -2.6401   -3.1891    0.0000 C   0  0  0  0  0  0  0  0  0  0  0  0
   -2.9520   -4.6564    0.0000 O   0  0  0  0  0  0  0  0  0  0  0  0
   -1.2135   -2.7256    0.0000 C   0  0  0  0  0  0  0  0  0  0  0  0
   -0.0000   -3.6073    0.0000 C   0  0  0  0  0  0  0  0  0  0  0  0
   -0.0000   -5.1073    0.0000 C   0  0  0  0  0  0  0  0  0  0  0  0
    1.2135   -2.7256    0.0000 N   0  0  0  0  0  0  0  0  0  0  0  0
    0.7500   -1.2990    0.0000 C   0  0  0  0  0  0  0  0  0  0  0  0
    1.5000    0.0000    0.0000 C   0  0  0  0  0  0  0  0  0  0  0  0
    0.7500    1.2990    0.0000 C   0  0  0  0  0  0  0  0  0  0  0  0
   -0.7500    1.2990    0.0000 C   0  0  0  0  0  0  0  0  0  0  0  0
   -1.5000    0.0000    0.0000 C   0  0  0  0  0  0  0  0  0  0  0  0
   -0.7500   -1.2990    0.0000 N   0  0  0  0  0  0  0  0  0  0  0  0
  1  2  1  0
  2  3  2  0
  2  4  1  0
  4  5  2  0
  5  6  1  0
  5  7  1  0
  7  8  1  0
  8  9  1  0
  9 10  2  0
 10 11  1  0
 11 12  2  0
 12 13  1  0
 13  4  1  0
 13  8  1  0
M  END
>  <SMILES>  (59) 
CC(=O)C1=C(C)NC2C=CC=CN12

>  <Formula>  (59) 
C10H12N2O

>  <MW>  (59) 
176.21899999999999

>  <HeavyAtoms>  (59) 
13

>  <TotalAtoms>  (59) 
13

>  <FormalCharge>  (59) 
0

>  <CLogP>  (59) 
1.1220000000000001

>  <MolarRefractivity>  (59) 
50.423999999999999

>  <SP3Fraction>  (59) 
0.29999999999999999

>  <TPSA>  (59) 
32.340000000000003

>  <LabuteASA>  (59) 
77.414000000000001

>  <RotatableBonds>  (59) 
1

>  <LHBD>  (59) 
1

>  <HBD>  (59) 
1

>  <LHBA>  (59) 
3

>  <HBA>  (59) 
3

>  <TotalRings>  (59) 
2

>  <AromaticRings>  (59) 
0

>  <AromaticCarboCycles>  (59) 
0

>  <AromaticHeteroCycles>  (59) 
0

>  <AliphaticRings>  (59) 
2

>  <AliphaticCarboCycles>  (59) 
0

>  <AliphaticHeteroCycles>  (59) 
2

>  <Bridgehead>  (59) 
0

>  <Spiro>  (59) 
0

>  <LipinskiR3>  (59) 
1

>  <LipinskiR5>  (59) 
1

>  <Ghose>  (59) 
0

>  <Veber>  (59) 
1

>  <REOS>  (59) 
0

>  <Drug-like>  (59) 
1

>  <QED_MaxWeight>  (59) 
0.66600000000000004

>  <QED_MeanWeight>  (59) 
0.64900000000000002

>  <QED_NoWeight>  (59) 
0.69399999999999995

>  <Reference_Name>  (59) 
CHEMBL25

>  <Reference_SMILES>  (59) 
CC(=O)Oc1ccccc1C(=O)O

>  <Reference_Molecule_SMILES>  (59) 
CC(=O)Oc1ccccc1C(=O)O

>  <Morgan_Tanimoto_Distance>  (59) 
0.75862068965517238

>  <CATS_Euclidean_Distance>  (59) 
35

>  <Gobbi_2Dphp_Tanimoto_Distance>  (59) 
0.93103448275862066

>  <2Dphp_Tanimoto_Distance>  (59) 
0.97222222222222221

>  <Synthetic_Accessibility>  (59) 
4.1036274363127996

$$$$
CHEMBL25-Var563
     RDKit          2D

 15 16  0  0  0  0  0  0  0  0999 V2000
    3.7500   -1.2990    0.0000 C   0  0  0  0  0  0  0  0  0  0  0  0
    3.0000    0.0000    0.0000 C   0  0  0  0  0  0  0  0  0  0  0  0
    3.7500    1.2990    0.0000 O   0  0  0  0  0  0  0  0  0  0  0  0
    1.5000    0.0000    0.0000 N   0  0  0  0  0  0  0  0  0  0  0  0
    0.7500   -1.2990    0.0000 C   0  0  0  0  0  0  0  0  0  0  0  0
   -0.7500   -1.2990    0.0000 N   0  0  0  0  0  0  0  0  0  0  0  0
   -1.5000    0.0000    0.0000 C   0  0  0  0  0  0  0  0  0  0  0  0
   -0.7500    1.2990    0.0000 N   0  0  0  0  0  0  0  0  0  0  0  0
    0.7500    1.2990    0.0000 C   0  0  0  0  0  0  0  0  0  0  0  0
   -2.2500    1.2990    0.0000 C   0  0  0  0  0  0  0  0  0  0  0  0
   -3.0000    0.0000    0.0000 N   0  0  0  0  0  0  0  0  0  0  0  0
   -4.5000    0.0000    0.0000 C   0  0  0  0  0  0  0  0  0  0  0  0
   -5.2500    1.2990    0.0000 C   0  0  0  0  0  0  0  0  0  0  0  0
   -5.2500   -1.2990    0.0000 O   0  0  0  0  0  0  0  0  0  0  0  0
   -2.2500   -1.2990    0.0000 C   0  0  0  0  0  0  0  0  0  0  0  0
  1  2  1  0
  2  3  2  0
  2  4  1  0
  4  5  1  0
  5  6  1  0
  6  7  1  0
  7  8  1  0
  8  9  1  0
  8 10  1  0
 10 11  1  0
 11 12  1  0
 12 13  1  0
 12 14  2  0
 11 15  1  0
  9  4  1  0
 15  6  1  0
M  END
>  <SMILES>  (60) 
CC(=O)N1CN2CN(C1)CN(C(C)=O)C2

>  <Formula>  (60) 
C9H16N4O2

>  <MW>  (60) 
212.25299999999999

>  <HeavyAtoms>  (60) 
15

>  <TotalAtoms>  (60) 
15

>  <FormalCharge>  (60) 
0

>  <CLogP>  (60) 
-0.89800000000000002

>  <MolarRefractivity>  (60) 
53.052999999999997

>  <SP3Fraction>  (60) 
0.77800000000000002

>  <TPSA>  (60) 
47.100000000000001

>  <LabuteASA>  (60) 
89.010000000000005

>  <RotatableBonds>  (60) 
0

>  <LHBD>  (60) 
0

>  <HBD>  (60) 
0

>  <LHBA>  (60) 
6

>  <HBA>  (60) 
4

>  <TotalRings>  (60) 
2

>  <AromaticRings>  (60) 
0

>  <AromaticCarboCycles>  (60) 
0

>  <AromaticHeteroCycles>  (60) 
0

>  <AliphaticRings>  (60) 
2

>  <AliphaticCarboCycles>  (60) 
0

>  <AliphaticHeteroCycles>  (60) 
2

>  <Bridgehead>  (60) 
2

>  <Spiro>  (60) 
0

>  <LipinskiR3>  (60) 
1

>  <LipinskiR5>  (60) 
1

>  <Ghose>  (60) 
0

>  <Veber>  (60) 
1

>  <REOS>  (60) 
1

>  <Drug-like>  (60) 
1

>  <QED_MaxWeight>  (60) 
0.55400000000000005

>  <QED_MeanWeight>  (60) 
0.52200000000000002

>  <QED_NoWeight>  (60) 
0.56200000000000006

>  <Reference_Name>  (60) 
CHEMBL25

>  <Reference_SMILES>  (60) 
CC(=O)Oc1ccccc1C(=O)O

>  <Reference_Molecule_SMILES>  (60) 
CC(=O)Oc1ccccc1C(=O)O

>  <Morgan_Tanimoto_Distance>  (60) 
0.77272727272727271

>  <CATS_Euclidean_Distance>  (60) 
36.742346141747674

>  <Gobbi_2Dphp_Tanimoto_Distance>  (60) 
0.94805194805194803

>  <2Dphp_Tanimoto_Distance>  (60) 
0.95652173913043481

>  <Synthetic_Accessibility>  (60) 
4.1032360943819866

$$$$
CHEMBL25-Var511
     RDKit          2D

 14 14  0  0  0  0  0  0  0  0999 V2000
    4.6309   -1.7331    0.0000 C   0  0  0  0  0  0  0  0  0  0  0  0
    3.5702   -0.6724    0.0000 C   0  0  0  0  0  0  0  0  0  0  0  0
    3.9584    0.7765    0.0000 O   0  0  0  0  0  0  0  0  0  0  0  0
    2.1213   -1.0607    0.0000 O   0  0  0  0  0  0  0  0  0  0  0  0
    1.0607    0.0000    0.0000 C   0  0  0  0  0  0  0  0  0  0  0  0
    2.1213    1.0607    0.0000 C   0  0  0  0  0  0  0  0  0  0  0  0
   -0.0000   -1.0607    0.0000 C   0  0  0  0  0  0  0  0  0  0  0  0
   -0.0000   -2.5607    0.0000 O   0  0  0  0  0  0  0  0  0  0  0  0
   -1.0607    0.0000    0.0000 O   0  0  0  0  0  0  0  0  0  0  0  0
    0.0000    1.0607    0.0000 C   0  0  0  0  0  0  0  0  0  0  0  0
   -1.0607    2.1213    0.0000 C   0  0  0  0  0  0  0  0  0  0  0  0
    1.0607    2.1213    0.0000 C   0  0  0  0  0  0  0  0  0  0  0  0
    2.5095    1.7331    0.0000 C   0  0  0  0  0  0  0  0  0  0  0  0
    0.6724    3.5702    0.0000 O   0  0  0  0  0  0  0  0  0  0  0  0
  1  2  1  0
  2  3  2  0
  2  4  1  0
  4  5  1  0
  5  6  1  0
  5  7  1  0
  7  8  2  0
  7  9  1  0
  9 10  1  0
 10 11  1  0
 10 12  1  0
 12 13  1  0
 12 14  2  0
 10  5  1  0
M  END
>  <SMILES>  (61) 
CC(=O)OC1(C)C(=O)OC1(C)C(C)=O

>  <Formula>  (61) 
C9H12O5

>  <MW>  (61) 
200.19

>  <HeavyAtoms>  (61) 
14

>  <TotalAtoms>  (61) 
14

>  <FormalCharge>  (61) 
0

>  <CLogP>  (61) 
0.21299999999999999

>  <MolarRefractivity>  (61) 
45.348999999999997

>  <SP3Fraction>  (61) 
0.66700000000000004

>  <TPSA>  (61) 
69.670000000000002

>  <LabuteASA>  (61) 
81.364999999999995

>  <RotatableBonds>  (61) 
2

>  <LHBD>  (61) 
0

>  <HBD>  (61) 
0

>  <LHBA>  (61) 
5

>  <HBA>  (61) 
5

>  <TotalRings>  (61) 
1

>  <AromaticRings>  (61) 
0

>  <AromaticCarboCycles>  (61) 
0

>  <AromaticHeteroCycles>  (61) 
0

>  <AliphaticRings>  (61) 
1

>  <AliphaticCarboCycles>  (61) 
0

>  <AliphaticHeteroCycles>  (61) 
1

>  <Bridgehead>  (61) 
0

>  <Spiro>  (61) 
0

>  <LipinskiR3>  (61) 
1

>  <LipinskiR5>  (61) 
1

>  <Ghose>  (61) 
0

>  <Veber>  (61) 
1

>  <REOS>  (61) 
0

>  <Drug-like>  (61) 
1

>  <QED_MaxWeight>  (61) 
0.60199999999999998

>  <QED_MeanWeight>  (61) 
0.59599999999999997

>  <QED_NoWeight>  (61) 
0.63300000000000001

>  <Reference_Name>  (61) 
CHEMBL25

>  <Reference_SMILES>  (61) 
CC(=O)Oc1ccccc1C(=O)O

>  <Reference_Molecule_SMILES>  (61) 
CC(=O)Oc1ccccc1C(=O)O

>  <Morgan_Tanimoto_Distance>  (61) 
0.69230769230769229

>  <CATS_Euclidean_Distance>  (61) 
35.651086939951774

>  <Gobbi_2Dphp_Tanimoto_Distance>  (61) 
0.89473684210526316

>  <2Dphp_Tanimoto_Distance>  (61) 
0.85714285714285721

>  <Synthetic_Accessibility>  (61) 
4.1032221032160656

$$$$
CHEMBL25-Var2905
     RDKit          2D

 14 14  0  0  0  0  0  0  0  0999 V2000
    2.7760    0.0000    0.0000 C   0  0  0  0  0  0  0  0  0  0  0  0
    1.2760    0.0000    0.0000 C   0  0  0  0  0  0  0  0  0  0  0  0
    0.3943    1.2135    0.0000 C   0  0  0  0  0  0  0  0  0  0  0  0
   -1.0323    0.7500    0.0000 C   0  0  0  0  0  0  0  0  0  0  0  0
   -2.2458    1.6317    0.0000 C   0  0  0  0  0  0  0  0  0  0  0  0
   -3.6161    1.0216    0.0000 O   0  0  0  0  0  0  0  0  0  0  0  0
   -2.0890    3.1235    0.0000 O   0  0  0  0  0  0  0  0  0  0  0  0
   -1.0323   -0.7500    0.0000 C   0  0  0  0  0  0  0  0  0  0  0  0
   -2.2458   -1.6317    0.0000 C   0  0  0  0  0  0  0  0  0  0  0  0
   -3.6161   -1.0216    0.0000 N   0  0  0  0  0  0  0  0  0  0  0  0
   -2.0890   -3.1235    0.0000 C   0  0  0  0  0  0  0  0  0  0  0  0
   -0.7187   -3.7336    0.0000 O   0  0  0  0  0  0  0  0  0  0  0  0
   -3.3025   -4.0051    0.0000 O   0  0  0  0  0  0  0  0  0  0  0  0
    0.3943   -1.2135    0.0000 C   0  0  0  0  0  0  0  0  0  0  0  0
  1  2  2  0
  2  3  1  0
  3  4  1  0
  4  5  1  0
  5  6  2  0
  5  7  1  0
  4  8  1  0
  8  9  1  0
  9 10  1  0
  9 11  1  0
 11 12  2  0
 11 13  1  0
  8 14  1  0
 14  2  1  0
M  END
>  <SMILES>  (62) 
C=C1CC(C(=O)O)C(C(N)C(=O)O)C1

>  <Formula>  (62) 
C9H13NO4

>  <MW>  (62) 
199.20599999999999

>  <HeavyAtoms>  (62) 
14

>  <TotalAtoms>  (62) 
14

>  <FormalCharge>  (62) 
0

>  <CLogP>  (62) 
0.065000000000000002

>  <MolarRefractivity>  (62) 
48.600999999999999

>  <SP3Fraction>  (62) 
0.55600000000000005

>  <TPSA>  (62) 
100.62

>  <LabuteASA>  (62) 
81.215000000000003

>  <RotatableBonds>  (62) 
3

>  <LHBD>  (62) 
4

>  <HBD>  (62) 
3

>  <LHBA>  (62) 
5

>  <HBA>  (62) 
3

>  <TotalRings>  (62) 
1

>  <AromaticRings>  (62) 
0

>  <AromaticCarboCycles>  (62) 
0

>  <AromaticHeteroCycles>  (62) 
0

>  <AliphaticRings>  (62) 
1

>  <AliphaticCarboCycles>  (62) 
1

>  <AliphaticHeteroCycles>  (62) 
0

>  <Bridgehead>  (62) 
0

>  <Spiro>  (62) 
0

>  <LipinskiR3>  (62) 
0

>  <LipinskiR5>  (62) 
1

>  <Ghose>  (62) 
0

>  <Veber>  (62) 
1

>  <REOS>  (62) 
0

>  <Drug-like>  (62) 
1

>  <QED_MaxWeight>  (62) 
0.56599999999999995

>  <QED_MeanWeight>  (62) 
0.55800000000000005

>  <QED_NoWeight>  (62) 
0.57599999999999996

>  <Reference_Name>  (62) 
CHEMBL25

>  <Reference_SMILES>  (62) 
CC(=O)Oc1ccccc1C(=O)O

>  <Reference_Molecule_SMILES>  (62) 
CC(=O)Oc1ccccc1C(=O)O

>  <Morgan_Tanimoto_Distance>  (62) 
0.83333333333333337

>  <CATS_Euclidean_Distance>  (62) 
37.161808352124091

>  <Gobbi_2Dphp_Tanimoto_Distance>  (62) 
0.97950819672131151

>  <2Dphp_Tanimoto_Distance>  (62) 
0.86086956521739133

>  <Synthetic_Accessibility>  (62) 
4.0934021121462401

$$$$
CHEMBL25-Var514
     RDKit          2D

 15 15  0  0  0  0  0  0  0  0999 V2000
    5.0260    1.2990    0.0000 C   0  0  0  0  0  0  0  0  0  0  0  0
    3.5260    1.2990    0.0000 C   0  0  0  0  0  0  0  0  0  0  0  0
    2.7760    2.5981    0.0000 O   0  0  0  0  0  0  0  0  0  0  0  0
    2.7760    0.0000    0.0000 O   0  0  0  0  0  0  0  0  0  0  0  0
    1.2760    0.0000    0.0000 C   0  0  0  0  0  0  0  0  0  0  0  0
    0.3943    1.2135    0.0000 O   0  0  0  0  0  0  0  0  0  0  0  0
   -1.0323    0.7500    0.0000 C   0  0  0  0  0  0  0  0  0  0  0  0
   -2.2458    1.6317    0.0000 O   0  0  0  0  0  0  0  0  0  0  0  0
   -1.0323   -0.7500    0.0000 C   0  0  0  0  0  0  0  0  0  0  0  0
   -2.5241   -0.5932    0.0000 O   0  0  0  0  0  0  0  0  0  0  0  0
   -1.3442   -2.2172    0.0000 C   0  0  0  0  0  0  0  0  0  0  0  0
   -2.7707   -2.6807    0.0000 C   0  0  0  0  0  0  0  0  0  0  0  0
   -0.2294   -3.2209    0.0000 O   0  0  0  0  0  0  0  0  0  0  0  0
    0.3943   -1.2135    0.0000 C   0  0  0  0  0  0  0  0  0  0  0  0
    0.8578   -2.6401    0.0000 C   0  0  0  0  0  0  0  0  0  0  0  0
  1  2  1  0
  2  3  2  0
  2  4  1  0
  4  5  1  0
  5  6  1  0
  6  7  1  0
  7  8  2  0
  7  9  1  0
  9 10  1  0
  9 11  1  0
 11 12  1  0
 11 13  2  0
  9 14  1  0
 14 15  1  0
 14  5  1  0
M  END
>  <SMILES>  (63) 
CC(=O)OC1OC(=O)C(O)(C(C)=O)C1C

>  <Formula>  (63) 
C9H12O6

>  <MW>  (63) 
216.18899999999999

>  <HeavyAtoms>  (63) 
15

>  <TotalAtoms>  (63) 
15

>  <FormalCharge>  (63) 
0

>  <CLogP>  (63) 
-0.61099999999999999

>  <MolarRefractivity>  (63) 
46.441000000000003

>  <SP3Fraction>  (63) 
0.66700000000000004

>  <TPSA>  (63) 
89.900000000000006

>  <LabuteASA>  (63) 
86.159000000000006

>  <RotatableBonds>  (63) 
2

>  <LHBD>  (63) 
1

>  <HBD>  (63) 
1

>  <LHBA>  (63) 
6

>  <HBA>  (63) 
6

>  <TotalRings>  (63) 
1

>  <AromaticRings>  (63) 
0

>  <AromaticCarboCycles>  (63) 
0

>  <AromaticHeteroCycles>  (63) 
0

>  <AliphaticRings>  (63) 
1

>  <AliphaticCarboCycles>  (63) 
0

>  <AliphaticHeteroCycles>  (63) 
1

>  <Bridgehead>  (63) 
0

>  <Spiro>  (63) 
0

>  <LipinskiR3>  (63) 
1

>  <LipinskiR5>  (63) 
1

>  <Ghose>  (63) 
0

>  <Veber>  (63) 
1

>  <REOS>  (63) 
1

>  <Drug-like>  (63) 
1

>  <QED_MaxWeight>  (63) 
0.46700000000000003

>  <QED_MeanWeight>  (63) 
0.48899999999999999

>  <QED_NoWeight>  (63) 
0.53400000000000003

>  <Reference_Name>  (63) 
CHEMBL25

>  <Reference_SMILES>  (63) 
CC(=O)Oc1ccccc1C(=O)O

>  <Reference_Molecule_SMILES>  (63) 
CC(=O)Oc1ccccc1C(=O)O

>  <Morgan_Tanimoto_Distance>  (63) 
0.72413793103448276

>  <CATS_Euclidean_Distance>  (63) 
36.069377593742864

>  <Gobbi_2Dphp_Tanimoto_Distance>  (63) 
0.91764705882352937

>  <2Dphp_Tanimoto_Distance>  (63) 
0.54285714285714293

>  <Synthetic_Accessibility>  (63) 
4.088554240399719

$$$$
CHEMBL25-Var153
     RDKit          2D

 14 15  0  0  0  0  0  0  0  0999 V2000
   -5.6640    1.7626    0.0000 C   0  0  0  0  0  0  0  0  0  0  0  0
   -4.1640    1.7626    0.0000 C   0  0  0  0  0  0  0  0  0  0  0  0
   -3.4140    3.0616    0.0000 O   0  0  0  0  0  0  0  0  0  0  0  0
   -3.4140    0.4635    0.0000 O   0  0  0  0  0  0  0  0  0  0  0  0
   -1.9140    0.4635    0.0000 C   0  0  0  0  0  0  0  0  0  0  0  0
   -1.0323    1.6771    0.0000 C   0  0  0  0  0  0  0  0  0  0  0  0
    0.3943    1.2135    0.0000 C   0  0  0  0  0  0  0  0  0  0  0  0
    1.2760    0.0000    0.0000 C   0  0  0  0  0  0  0  0  0  0  0  0
    0.3943   -1.2135    0.0000 C   0  0  0  0  0  0  0  0  0  0  0  0
   -1.0323   -0.7500    0.0000 C   0  0  0  0  0  0  0  0  0  0  0  0
   -2.2458   -1.6317    0.0000 C   0  0  0  0  0  0  0  0  0  0  0  0
   -1.0323    0.7500    0.0000 C   0  0  0  0  0  0  0  0  0  0  0  0
   -2.5177    0.9588    0.0000 C   0  0  0  0  0  0  0  0  0  0  0  0
   -1.6899    2.0982    0.0000 C   0  0  0  0  0  0  0  0  0  0  0  0
  1  2  1  0
  2  3  2  0
  2  4  1  0
  4  5  1  0
  5  6  1  0
  6  7  1  0
  7  8  1  0
  8  9  1  0
  9 10  1  0
 10 11  1  0
 10 12  1  0
 12 13  1  0
 12 14  1  0
 10  5  1  0
 12  7  1  0
M  END
>  <SMILES>  (64) 
CC(=O)OC1CC2CCC1(C)C2(C)C

>  <Formula>  (64) 
C12H20O2

>  <MW>  (64) 
196.28999999999999

>  <HeavyAtoms>  (64) 
14

>  <TotalAtoms>  (64) 
14

>  <FormalCharge>  (64) 
0

>  <CLogP>  (64) 
2.7639999999999998

>  <MolarRefractivity>  (64) 
54.783000000000001

>  <SP3Fraction>  (64) 
0.91700000000000004

>  <TPSA>  (64) 
26.300000000000001

>  <LabuteASA>  (64) 
86.016999999999996

>  <RotatableBonds>  (64) 
1

>  <LHBD>  (64) 
0

>  <HBD>  (64) 
0

>  <LHBA>  (64) 
2

>  <HBA>  (64) 
2

>  <TotalRings>  (64) 
2

>  <AromaticRings>  (64) 
0

>  <AromaticCarboCycles>  (64) 
0

>  <AromaticHeteroCycles>  (64) 
0

>  <AliphaticRings>  (64) 
2

>  <AliphaticCarboCycles>  (64) 
2

>  <AliphaticHeteroCycles>  (64) 
0

>  <Bridgehead>  (64) 
2

>  <Spiro>  (64) 
0

>  <LipinskiR3>  (64) 
1

>  <LipinskiR5>  (64) 
1

>  <Ghose>  (64) 
0

>  <Veber>  (64) 
1

>  <REOS>  (64) 
0

>  <Drug-like>  (64) 
1

>  <QED_MaxWeight>  (64) 
0.59599999999999997

>  <QED_MeanWeight>  (64) 
0.60299999999999998

>  <QED_NoWeight>  (64) 
0.65500000000000003

>  <Reference_Name>  (64) 
CHEMBL25

>  <Reference_SMILES>  (64) 
CC(=O)Oc1ccccc1C(=O)O

>  <Reference_Molecule_SMILES>  (64) 
CC(=O)Oc1ccccc1C(=O)O

>  <Morgan_Tanimoto_Distance>  (64) 
0.75

>  <CATS_Euclidean_Distance>  (64) 
35.028559776273987

>  <Gobbi_2Dphp_Tanimoto_Distance>  (64) 
0.98305084745762716

>  <2Dphp_Tanimoto_Distance>  (64) 
0.93181818181818188

>  <Synthetic_Accessibility>  (64) 
4.0860824773090147

$$$$
CHEMBL25-Var3692
     RDKit          2D

 11 11  0  0  0  0  0  0  0  0999 V2000
    3.0000    0.0000    0.0000 O   0  0  0  0  0  0  0  0  0  0  0  0
    1.5000    0.0000    0.0000 C   0  0  0  0  0  0  0  0  0  0  0  0
    0.7500   -1.2990    0.0000 C   0  0  0  0  0  0  0  0  0  0  0  0
   -0.7500   -1.2990    0.0000 S   0  0  0  0  0  0  0  0  0  0  0  0
   -1.5000   -2.5981    0.0000 O   0  0  0  0  0  0  0  0  0  0  0  0
   -1.5000    0.0000    0.0000 C   0  0  0  0  0  0  0  0  0  0  0  0
   -0.7500    1.2990    0.0000 C   0  0  0  0  0  0  0  0  0  0  0  0
   -1.5000    2.5981    0.0000 C   0  0  0  0  0  0  0  0  0  0  0  0
   -3.0000    2.5981    0.0000 O   0  0  0  0  0  0  0  0  0  0  0  0
   -0.7500    3.8971    0.0000 O   0  0  0  0  0  0  0  0  0  0  0  0
    0.7500    1.2990    0.0000 N   0  0  0  0  0  0  0  0  0  0  0  0
  1  2  2  0
  2  3  1  0
  3  4  1  0
  4  5  2  0
  4  6  1  0
  6  7  1  0
  7  8  1  0
  8  9  2  0
  8 10  1  0
  7 11  1  0
 11  2  1  0
M  END
>  <SMILES>  (65) 
O=C1CS(=O)CC(C(=O)O)N1

>  <Formula>  (65) 
C5H7NO4S

>  <MW>  (65) 
177.18100000000001

>  <HeavyAtoms>  (65) 
11

>  <TotalAtoms>  (65) 
11

>  <FormalCharge>  (65) 
0

>  <CLogP>  (65) 
-1.6819999999999999

>  <MolarRefractivity>  (65) 
37.442999999999998

>  <SP3Fraction>  (65) 
0.59999999999999998

>  <TPSA>  (65) 
83.469999999999999

>  <LabuteASA>  (65) 
65.234999999999999

>  <RotatableBonds>  (65) 
1

>  <LHBD>  (65) 
2

>  <HBD>  (65) 
2

>  <LHBA>  (65) 
5

>  <HBA>  (65) 
3

>  <TotalRings>  (65) 
1

>  <AromaticRings>  (65) 
0

>  <AromaticCarboCycles>  (65) 
0

>  <AromaticHeteroCycles>  (65) 
0

>  <AliphaticRings>  (65) 
1

>  <AliphaticCarboCycles>  (65) 
0

>  <AliphaticHeteroCycles>  (65) 
1

>  <Bridgehead>  (65) 
0

>  <Spiro>  (65) 
0

>  <LipinskiR3>  (65) 
1

>  <LipinskiR5>  (65) 
1

>  <Ghose>  (65) 
0

>  <Veber>  (65) 
1

>  <REOS>  (65) 
0

>  <Drug-like>  (65) 
1

>  <QED_MaxWeight>  (65) 
0.54800000000000004

>  <QED_MeanWeight>  (65) 
0.501

>  <QED_NoWeight>  (65) 
0.52300000000000002

>  <Reference_Name>  (65) 
CHEMBL25

>  <Reference_SMILES>  (65) 
CC(=O)Oc1ccccc1C(=O)O

>  <Reference_Molecule_SMILES>  (65) 
CC(=O)Oc1ccccc1C(=O)O

>  <Morgan_Tanimoto_Distance>  (65) 
0.82758620689655171

>  <CATS_Euclidean_Distance>  (65) 
36.110940170535578

>  <Gobbi_2Dphp_Tanimoto_Distance>  (65) 
0.92063492063492069

>  <2Dphp_Tanimoto_Distance>  (65) 
0.80952380952380953

>  <Synthetic_Accessibility>  (65) 
4.084489712858673

$$$$
CHEMBL25-Var2901
     RDKit          2D

 14 16  0  0  0  0  0  0  0  0999 V2000
   -1.5000   -5.1962    0.0000 O   0  0  0  0  0  0  0  0  0  0  0  0
   -0.0000   -5.1962    0.0000 C   0  0  0  0  0  0  0  0  0  0  0  0
    0.7500   -6.4952    0.0000 O   0  0  0  0  0  0  0  0  0  0  0  0
    0.7500   -3.8971    0.0000 C   0  0  0  0  0  0  0  0  0  0  0  0
   -0.0000   -2.5981    0.0000 C   0  0  0  0  0  0  0  0  0  0  0  0
    0.7500   -1.2990    0.0000 C   0  0  0  0  0  0  0  0  0  0  0  0
    1.5000    0.0000    0.0000 C   0  0  0  0  0  0  0  0  0  0  0  0
    0.7500    1.2990    0.0000 C   0  0  0  0  0  0  0  0  0  0  0  0
   -0.7500    1.2990    0.0000 C   0  0  0  0  0  0  0  0  0  0  0  0
   -1.5000    0.0000    0.0000 C   0  0  0  0  0  0  0  0  0  0  0  0
   -0.7500   -1.2990    0.0000 C   0  0  0  0  0  0  0  0  0  0  0  0
   -2.2500   -1.2990    0.0000 C   0  0  0  0  0  0  0  0  0  0  0  0
   -1.5000   -2.5981    0.0000 C   0  0  0  0  0  0  0  0  0  0  0  0
    0.7500   -0.2010    0.0000 C   0  0  0  0  0  0  0  0  0  0  0  0
  1  2  2  0
  2  3  1  0
  2  4  1  0
  4  5  2  0
  5  6  1  0
  6  7  1  0
  7  8  1  0
  8  9  1  0
  9 10  1  0
 10 11  1  0
 10 12  1  0
 12 13  1  0
 13 14  1  0
 13  5  1  0
 11  6  1  0
 14  8  1  0
M  END
>  <SMILES>  (66) 
O=C(O)C=C1C2CC3CC(C2)CC1C3

>  <Formula>  (66) 
C12H16O2

>  <MW>  (66) 
192.25800000000001

>  <HeavyAtoms>  (66) 
14

>  <TotalAtoms>  (66) 
14

>  <FormalCharge>  (66) 
0

>  <CLogP>  (66) 
2.4540000000000002

>  <MolarRefractivity>  (66) 
52.764000000000003

>  <SP3Fraction>  (66) 
0.75

>  <TPSA>  (66) 
37.299999999999997

>  <LabuteASA>  (66) 
84.001999999999995

>  <RotatableBonds>  (66) 
1

>  <LHBD>  (66) 
1

>  <HBD>  (66) 
1

>  <LHBA>  (66) 
2

>  <HBA>  (66) 
1

>  <TotalRings>  (66) 
4

>  <AromaticRings>  (66) 
0

>  <AromaticCarboCycles>  (66) 
0

>  <AromaticHeteroCycles>  (66) 
0

>  <AliphaticRings>  (66) 
4

>  <AliphaticCarboCycles>  (66) 
4

>  <AliphaticHeteroCycles>  (66) 
0

>  <Bridgehead>  (66) 
4

>  <Spiro>  (66) 
0

>  <LipinskiR3>  (66) 
1

>  <LipinskiR5>  (66) 
1

>  <Ghose>  (66) 
0

>  <Veber>  (66) 
1

>  <REOS>  (66) 
0

>  <Drug-like>  (66) 
1

>  <QED_MaxWeight>  (66) 
0.64300000000000002

>  <QED_MeanWeight>  (66) 
0.64800000000000002

>  <QED_NoWeight>  (66) 
0.70999999999999996

>  <Reference_Name>  (66) 
CHEMBL25

>  <Reference_SMILES>  (66) 
CC(=O)Oc1ccccc1C(=O)O

>  <Reference_Molecule_SMILES>  (66) 
CC(=O)Oc1ccccc1C(=O)O

>  <Morgan_Tanimoto_Distance>  (66) 
0.80000000000000004

>  <CATS_Euclidean_Distance>  (66) 
34.785054261852174

>  <Gobbi_2Dphp_Tanimoto_Distance>  (66) 
0.99199999999999999

>  <2Dphp_Tanimoto_Distance>  (66) 
0.8833333333333333

>  <Synthetic_Accessibility>  (66) 
4.0821267455420109

$$$$
CHEMBL25-Var2215
     RDKit          2D

 14 14  0  0  0  0  0  0  0  0999 V2000
    3.7500   -1.2990    0.0000 C   0  0  0  0  0  0  0  0  0  0  0  0
    3.0000    0.0000    0.0000 C   0  0  0  0  0  0  0  0  0  0  0  0
    3.7500    1.2990    0.0000 O   0  0  0  0  0  0  0  0  0  0  0  0
    1.5000    0.0000    0.0000 C   0  0  0  0  0  0  0  0  0  0  0  0
    0.7500   -1.2990    0.0000 O   0  0  0  0  0  0  0  0  0  0  0  0
   -0.7500   -1.2990    0.0000 C   0  0  0  0  0  0  0  0  0  0  0  0
   -1.5000   -2.5981    0.0000 C   0  0  0  0  0  0  0  0  0  0  0  0
   -0.7500   -3.8971    0.0000 O   0  0  0  0  0  0  0  0  0  0  0  0
   -3.0000   -2.5981    0.0000 O   0  0  0  0  0  0  0  0  0  0  0  0
   -1.5000    0.0000    0.0000 C   0  0  0  0  0  0  0  0  0  0  0  0
   -0.7500    1.2990    0.0000 C   0  0  0  0  0  0  0  0  0  0  0  0
   -1.5000    2.5981    0.0000 O   0  0  0  0  0  0  0  0  0  0  0  0
    0.7500    1.2990    0.0000 C   0  0  0  0  0  0  0  0  0  0  0  0
    1.5000    2.5981    0.0000 O   0  0  0  0  0  0  0  0  0  0  0  0
  1  2  1  0
  2  3  1  0
  2  4  1  0
  4  5  1  0
  5  6  1  0
  6  7  1  0
  7  8  2  0
  7  9  1  0
  6 10  1  0
 10 11  1  0
 11 12  1  0
 11 13  1  0
 13 14  1  0
 13  4  1  0
M  END
>  <SMILES>  (67) 
CC(O)C1OC(C(=O)O)CC(O)C1O

>  <Formula>  (67) 
C8H14O6

>  <MW>  (67) 
206.19399999999999

>  <HeavyAtoms>  (67) 
14

>  <TotalAtoms>  (67) 
14

>  <FormalCharge>  (67) 
0

>  <CLogP>  (67) 
-1.669

>  <MolarRefractivity>  (67) 
44.607999999999997

>  <SP3Fraction>  (67) 
0.875

>  <TPSA>  (67) 
107.22

>  <LabuteASA>  (67) 
80.739999999999995

>  <RotatableBonds>  (67) 
2

>  <LHBD>  (67) 
4

>  <HBD>  (67) 
4

>  <LHBA>  (67) 
6

>  <HBA>  (67) 
5

>  <TotalRings>  (67) 
1

>  <AromaticRings>  (67) 
0

>  <AromaticCarboCycles>  (67) 
0

>  <AromaticHeteroCycles>  (67) 
0

>  <AliphaticRings>  (67) 
1

>  <AliphaticCarboCycles>  (67) 
0

>  <AliphaticHeteroCycles>  (67) 
1

>  <Bridgehead>  (67) 
0

>  <Spiro>  (67) 
0

>  <LipinskiR3>  (67) 
0

>  <LipinskiR5>  (67) 
1

>  <Ghose>  (67) 
0

>  <Veber>  (67) 
1

>  <REOS>  (67) 
0

>  <Drug-like>  (67) 
1

>  <QED_MaxWeight>  (67) 
0.46700000000000003

>  <QED_MeanWeight>  (67) 
0.42999999999999999

>  <QED_NoWeight>  (67) 
0.41799999999999998

>  <Reference_Name>  (67) 
CHEMBL25

>  <Reference_SMILES>  (67) 
CC(=O)Oc1ccccc1C(=O)O

>  <Reference_Molecule_SMILES>  (67) 
CC(=O)Oc1ccccc1C(=O)O

>  <Morgan_Tanimoto_Distance>  (67) 
0.83870967741935487

>  <CATS_Euclidean_Distance>  (67) 
39.496835316262995

>  <Gobbi_2Dphp_Tanimoto_Distance>  (67) 
0.9802816901408451

>  <2Dphp_Tanimoto_Distance>  (67) 
0.79365079365079372

>  <Synthetic_Accessibility>  (67) 
4.0743323169925683

$$$$
CHEMBL25-Var4067
     RDKit          2D

 11 11  0  0  0  0  0  0  0  0999 V2000
    3.5260    1.2990    0.0000 O   0  0  0  0  0  0  0  0  0  0  0  0
    2.7760    0.0000    0.0000 C   0  0  0  0  0  0  0  0  0  0  0  0
    3.5260   -1.2990    0.0000 O   0  0  0  0  0  0  0  0  0  0  0  0
    1.2760    0.0000    0.0000 C   0  0  0  0  0  0  0  0  0  0  0  0
    0.3943    1.2135    0.0000 C   0  0  0  0  0  0  0  0  0  0  0  0
   -1.0323    0.7500    0.0000 O   0  0  0  0  0  0  0  0  0  0  0  0
   -1.0323   -0.7500    0.0000 C   0  0  0  0  0  0  0  0  0  0  0  0
   -2.2458   -1.6317    0.0000 C   0  0  0  0  0  0  0  0  0  0  0  0
   -2.0890   -3.1235    0.0000 O   0  0  0  0  0  0  0  0  0  0  0  0
   -3.6161   -1.0216    0.0000 O   0  0  0  0  0  0  0  0  0  0  0  0
    0.3943   -1.2135    0.0000 N   0  0  0  0  0  0  0  0  0  0  0  0
  1  2  2  0
  2  3  1  0
  2  4  1  0
  4  5  1  0
  5  6  1  0
  6  7  1  0
  7  8  1  0
  8  9  2  0
  8 10  1  0
  7 11  1  0
 11  4  1  0
M  END
>  <SMILES>  (68) 
O=C(O)C1COC(C(=O)O)N1

>  <Formula>  (68) 
C5H7NO5

>  <MW>  (68) 
161.113

>  <HeavyAtoms>  (68) 
11

>  <TotalAtoms>  (68) 
11

>  <FormalCharge>  (68) 
0

>  <CLogP>  (68) 
-1.53

>  <MolarRefractivity>  (68) 
31.934999999999999

>  <SP3Fraction>  (68) 
0.59999999999999998

>  <TPSA>  (68) 
95.859999999999999

>  <LabuteASA>  (68) 
61.768000000000001

>  <RotatableBonds>  (68) 
2

>  <LHBD>  (68) 
3

>  <HBD>  (68) 
3

>  <LHBA>  (68) 
6

>  <HBA>  (68) 
4

>  <TotalRings>  (68) 
1

>  <AromaticRings>  (68) 
0

>  <AromaticCarboCycles>  (68) 
0

>  <AromaticHeteroCycles>  (68) 
0

>  <AliphaticRings>  (68) 
1

>  <AliphaticCarboCycles>  (68) 
0

>  <AliphaticHeteroCycles>  (68) 
1

>  <Bridgehead>  (68) 
0

>  <Spiro>  (68) 
0

>  <LipinskiR3>  (68) 
1

>  <LipinskiR5>  (68) 
1

>  <Ghose>  (68) 
0

>  <Veber>  (68) 
1

>  <REOS>  (68) 
0

>  <Drug-like>  (68) 
1

>  <QED_MaxWeight>  (68) 
0.496

>  <QED_MeanWeight>  (68) 
0.45400000000000001

>  <QED_NoWeight>  (68) 
0.45000000000000001

>  <Reference_Name>  (68) 
CHEMBL25

>  <Reference_SMILES>  (68) 
CC(=O)Oc1ccccc1C(=O)O

>  <Reference_Molecule_SMILES>  (68) 
CC(=O)Oc1ccccc1C(=O)O

>  <Morgan_Tanimoto_Distance>  (68) 
0.84615384615384615

>  <CATS_Euclidean_Distance>  (68) 
38.262252939417984

>  <Gobbi_2Dphp_Tanimoto_Distance>  (68) 
0.90909090909090906

>  <2Dphp_Tanimoto_Distance>  (68) 
0.80303030303030298

>  <Synthetic_Accessibility>  (68) 
4.0739952831504489

$$$$
CHEMBL25-Var3733
     RDKit          2D

 15 16  0  0  0  0  0  0  0  0999 V2000
    3.0000   -5.1962    0.0000 O   0  0  0  0  0  0  0  0  0  0  0  0
    1.5000   -5.1962    0.0000 C   0  0  0  0  0  0  0  0  0  0  0  0
    0.7500   -6.4952    0.0000 O   0  0  0  0  0  0  0  0  0  0  0  0
    0.7500   -3.8971    0.0000 C   0  0  0  0  0  0  0  0  0  0  0  0
    1.5000   -2.5981    0.0000 C   0  0  0  0  0  0  0  0  0  0  0  0
    0.7500   -1.2990    0.0000 C   0  0  0  0  0  0  0  0  0  0  0  0
    1.5000    0.0000    0.0000 C   0  0  0  0  0  0  0  0  0  0  0  0
    0.7500    1.2990    0.0000 C   0  0  0  0  0  0  0  0  0  0  0  0
    1.5000    2.5981    0.0000 Cl  0  0  0  0  0  0  0  0  0  0  0  0
   -0.7500    1.2990    0.0000 C   0  0  0  0  0  0  0  0  0  0  0  0
   -1.5000    0.0000    0.0000 C   0  0  0  0  0  0  0  0  0  0  0  0
   -0.7500   -1.2990    0.0000 C   0  0  0  0  0  0  0  0  0  0  0  0
   -1.5000   -2.5981    0.0000 O   0  0  0  0  0  0  0  0  0  0  0  0
   -0.7500   -3.8971    0.0000 C   0  0  0  0  0  0  0  0  0  0  0  0
   -1.5000   -5.1962    0.0000 O   0  0  0  0  0  0  0  0  0  0  0  0
  1  2  2  0
  2  3  1  0
  2  4  1  0
  4  5  2  0
  5  6  1  0
  6  7  1  0
  7  8  2  0
  8  9  1  0
  8 10  1  0
 10 11  2  0
 11 12  1  0
 12 13  1  0
 13 14  1  0
 14 15  2  0
 14  4  1  0
 12  6  1  0
M  END
>  <SMILES>  (69) 
O=C(O)C1=CC2C=C(Cl)C=CC2OC1=O

>  <Formula>  (69) 
C10H7ClO4

>  <MW>  (69) 
226.61500000000001

>  <HeavyAtoms>  (69) 
15

>  <TotalAtoms>  (69) 
15

>  <FormalCharge>  (69) 
0

>  <CLogP>  (69) 
1.232

>  <MolarRefractivity>  (69) 
52.164999999999999

>  <SP3Fraction>  (69) 
0.20000000000000001

>  <TPSA>  (69) 
63.600000000000001

>  <LabuteASA>  (69) 
90.477000000000004

>  <RotatableBonds>  (69) 
1

>  <LHBD>  (69) 
1

>  <HBD>  (69) 
1

>  <LHBA>  (69) 
4

>  <HBA>  (69) 
3

>  <TotalRings>  (69) 
2

>  <AromaticRings>  (69) 
0

>  <AromaticCarboCycles>  (69) 
0

>  <AromaticHeteroCycles>  (69) 
0

>  <AliphaticRings>  (69) 
2

>  <AliphaticCarboCycles>  (69) 
1

>  <AliphaticHeteroCycles>  (69) 
1

>  <Bridgehead>  (69) 
0

>  <Spiro>  (69) 
0

>  <LipinskiR3>  (69) 
1

>  <LipinskiR5>  (69) 
1

>  <Ghose>  (69) 
0

>  <Veber>  (69) 
1

>  <REOS>  (69) 
1

>  <Drug-like>  (69) 
1

>  <QED_MaxWeight>  (69) 
0.49199999999999999

>  <QED_MeanWeight>  (69) 
0.54000000000000004

>  <QED_NoWeight>  (69) 
0.65000000000000002

>  <Reference_Name>  (69) 
CHEMBL25

>  <Reference_SMILES>  (69) 
CC(=O)Oc1ccccc1C(=O)O

>  <Reference_Molecule_SMILES>  (69) 
CC(=O)Oc1ccccc1C(=O)O

>  <Morgan_Tanimoto_Distance>  (69) 
0.72413793103448276

>  <CATS_Euclidean_Distance>  (69) 
35.510561809129406

>  <Gobbi_2Dphp_Tanimoto_Distance>  (69) 
0.93258426966292141

>  <2Dphp_Tanimoto_Distance>  (69) 
0.80000000000000004

>  <Synthetic_Accessibility>  (69) 
4.0732777454138809

$$$$
CHEMBL25-Var2400
     RDKit          2D

 14 15  0  0  0  0  0  0  0  0999 V2000
    1.1491   -3.5623    0.0000 C   0  0  0  0  0  0  0  0  0  0  0  0
   -0.0000   -2.5981    0.0000 C   0  0  0  0  0  0  0  0  0  0  0  0
   -1.1491   -3.5623    0.0000 C   0  0  0  0  0  0  0  0  0  0  0  0
   -2.5586   -3.0492    0.0000 O   0  0  0  0  0  0  0  0  0  0  0  0
   -0.8886   -5.0395    0.0000 O   0  0  0  0  0  0  0  0  0  0  0  0
    0.7500   -1.2990    0.0000 C   0  0  0  0  0  0  0  0  0  0  0  0
    1.5000    0.0000    0.0000 C   0  0  0  0  0  0  0  0  0  0  0  0
    0.7500    1.2990    0.0000 C   0  0  0  0  0  0  0  0  0  0  0  0
    1.5000    2.5981    0.0000 C   0  0  0  0  0  0  0  0  0  0  0  0
    0.7500    3.8971    0.0000 O   0  0  0  0  0  0  0  0  0  0  0  0
    3.0000    2.5981    0.0000 O   0  0  0  0  0  0  0  0  0  0  0  0
   -0.7500    1.2990    0.0000 C   0  0  0  0  0  0  0  0  0  0  0  0
   -1.5000    0.0000    0.0000 C   0  0  0  0  0  0  0  0  0  0  0  0
   -0.7500   -1.2990    0.0000 C   0  0  0  0  0  0  0  0  0  0  0  0
  1  2  1  0
  2  3  1  0
  3  4  2  0
  3  5  1  0
  2  6  1  0
  6  7  1  0
  7  8  2  0
  8  9  1  0
  9 10  2  0
  9 11  1  0
  8 12  1  0
 12 13  1  0
 13 14  1  0
 14  2  1  0
 14  6  1  0
M  END
>  <SMILES>  (70) 
CC1(C(=O)O)C2C=C(C(=O)O)CCC21

>  <Formula>  (70) 
C10H12O4

>  <MW>  (70) 
196.202

>  <HeavyAtoms>  (70) 
14

>  <TotalAtoms>  (70) 
14

>  <FormalCharge>  (70) 
0

>  <CLogP>  (70) 
1.1279999999999999

>  <MolarRefractivity>  (70) 
47.676000000000002

>  <SP3Fraction>  (70) 
0.59999999999999998

>  <TPSA>  (70) 
74.599999999999994

>  <LabuteASA>  (70) 
81.233999999999995

>  <RotatableBonds>  (70) 
2

>  <LHBD>  (70) 
2

>  <HBD>  (70) 
2

>  <LHBA>  (70) 
4

>  <HBA>  (70) 
2

>  <TotalRings>  (70) 
2

>  <AromaticRings>  (70) 
0

>  <AromaticCarboCycles>  (70) 
0

>  <AromaticHeteroCycles>  (70) 
0

>  <AliphaticRings>  (70) 
2

>  <AliphaticCarboCycles>  (70) 
2

>  <AliphaticHeteroCycles>  (70) 
0

>  <Bridgehead>  (70) 
0

>  <Spiro>  (70) 
0

>  <LipinskiR3>  (70) 
1

>  <LipinskiR5>  (70) 
1

>  <Ghose>  (70) 
0

>  <Veber>  (70) 
1

>  <REOS>  (70) 
0

>  <Drug-like>  (70) 
1

>  <QED_MaxWeight>  (70) 
0.70999999999999996

>  <QED_MeanWeight>  (70) 
0.69399999999999995

>  <QED_NoWeight>  (70) 
0.72399999999999998

>  <Reference_Name>  (70) 
CHEMBL25

>  <Reference_SMILES>  (70) 
CC(=O)Oc1ccccc1C(=O)O

>  <Reference_Molecule_SMILES>  (70) 
CC(=O)Oc1ccccc1C(=O)O

>  <Morgan_Tanimoto_Distance>  (70) 
0.7142857142857143

>  <CATS_Euclidean_Distance>  (70) 
37.509998667022103

>  <Gobbi_2Dphp_Tanimoto_Distance>  (70) 
0.99295774647887325

>  <2Dphp_Tanimoto_Distance>  (70) 
0.81818181818181812

>  <Synthetic_Accessibility>  (70) 
4.0680418210859486

$$$$
CHEMBL25-Var3989
     RDKit          2D

 13 14  0  0  0  0  0  0  0  0999 V2000
   -4.1640   -0.8355    0.0000 O   0  0  0  0  0  0  0  0  0  0  0  0
   -3.4140    0.4635    0.0000 C   0  0  0  0  0  0  0  0  0  0  0  0
   -4.1640    1.7626    0.0000 O   0  0  0  0  0  0  0  0  0  0  0  0
   -1.9140    0.4635    0.0000 C   0  0  0  0  0  0  0  0  0  0  0  0
   -1.0323    1.6771    0.0000 C   0  0  0  0  0  0  0  0  0  0  0  0
   -1.4958    3.1036    0.0000 C   0  0  0  0  0  0  0  0  0  0  0  0
   -2.9630    3.4155    0.0000 O   0  0  0  0  0  0  0  0  0  0  0  0
   -0.4921    4.2184    0.0000 O   0  0  0  0  0  0  0  0  0  0  0  0
    0.3943    1.2135    0.0000 C   0  0  0  0  0  0  0  0  0  0  0  0
    1.2760    0.0000    0.0000 C   0  0  0  0  0  0  0  0  0  0  0  0
    0.3943   -1.2135    0.0000 C   0  0  0  0  0  0  0  0  0  0  0  0
   -1.0323   -0.7500    0.0000 C   0  0  0  0  0  0  0  0  0  0  0  0
   -1.0323    0.7500    0.0000 C   0  0  0  0  0  0  0  0  0  0  0  0
  1  2  2  0
  2  3  1  0
  2  4  1  0
  4  5  2  0
  5  6  1  0
  6  7  2  0
  6  8  1  0
  5  9  1  0
  9 10  1  0
 10 11  1  0
 11 12  1  0
 12 13  1  0
 12  4  1  0
 13  9  1  0
M  END
>  <SMILES>  (71) 
O=C(O)C1=C(C(=O)O)C2CCC1C2

>  <Formula>  (71) 
C9H10O4

>  <MW>  (71) 
182.17500000000001

>  <HeavyAtoms>  (71) 
13

>  <TotalAtoms>  (71) 
13

>  <FormalCharge>  (71) 
0

>  <CLogP>  (71) 
0.88200000000000001

>  <MolarRefractivity>  (71) 
43.128999999999998

>  <SP3Fraction>  (71) 
0.55600000000000005

>  <TPSA>  (71) 
74.599999999999994

>  <LabuteASA>  (71) 
74.869

>  <RotatableBonds>  (71) 
2

>  <LHBD>  (71) 
2

>  <HBD>  (71) 
2

>  <LHBA>  (71) 
4

>  <HBA>  (71) 
2

>  <TotalRings>  (71) 
2

>  <AromaticRings>  (71) 
0

>  <AromaticCarboCycles>  (71) 
0

>  <AromaticHeteroCycles>  (71) 
0

>  <AliphaticRings>  (71) 
2

>  <AliphaticCarboCycles>  (71) 
2

>  <AliphaticHeteroCycles>  (71) 
0

>  <Bridgehead>  (71) 
2

>  <Spiro>  (71) 
0

>  <LipinskiR3>  (71) 
1

>  <LipinskiR5>  (71) 
1

>  <Ghose>  (71) 
0

>  <Veber>  (71) 
1

>  <REOS>  (71) 
0

>  <Drug-like>  (71) 
1

>  <QED_MaxWeight>  (71) 
0.68200000000000005

>  <QED_MeanWeight>  (71) 
0.66400000000000003

>  <QED_NoWeight>  (71) 
0.69899999999999995

>  <Reference_Name>  (71) 
CHEMBL25

>  <Reference_SMILES>  (71) 
CC(=O)Oc1ccccc1C(=O)O

>  <Reference_Molecule_SMILES>  (71) 
CC(=O)Oc1ccccc1C(=O)O

>  <Morgan_Tanimoto_Distance>  (71) 
0.7142857142857143

>  <CATS_Euclidean_Distance>  (71) 
39.471508711981102

>  <Gobbi_2Dphp_Tanimoto_Distance>  (71) 
0.99328859060402686

>  <2Dphp_Tanimoto_Distance>  (71) 
0.75

>  <Synthetic_Accessibility>  (71) 
4.0612700378039346

$$$$
CHEMBL25-Var3740
     RDKit          2D

 13 13  0  0  0  0  0  0  0  0999 V2000
    2.7760    0.0000    0.0000 O   0  0  0  0  0  0  0  0  0  0  0  0
    1.2760    0.0000    0.0000 C   0  0  0  0  0  0  0  0  0  0  0  0
    0.3943    1.2135    0.0000 O   0  0  0  0  0  0  0  0  0  0  0  0
   -1.0323    0.7500    0.0000 C   0  0  0  0  0  0  0  0  0  0  0  0
   -2.2458    1.6317    0.0000 C   0  0  0  0  0  0  0  0  0  0  0  0
   -3.6161    1.0216    0.0000 O   0  0  0  0  0  0  0  0  0  0  0  0
   -2.0890    3.1235    0.0000 C   0  0  0  0  0  0  0  0  0  0  0  0
   -0.7187    3.7336    0.0000 O   0  0  0  0  0  0  0  0  0  0  0  0
   -3.3025    4.0051    0.0000 O   0  0  0  0  0  0  0  0  0  0  0  0
   -1.0323   -0.7500    0.0000 C   0  0  0  0  0  0  0  0  0  0  0  0
   -2.2458   -1.6317    0.0000 O   0  0  0  0  0  0  0  0  0  0  0  0
    0.3943   -1.2135    0.0000 C   0  0  0  0  0  0  0  0  0  0  0  0
    0.8578   -2.6401    0.0000 O   0  0  0  0  0  0  0  0  0  0  0  0
  1  2  2  0
  2  3  1  0
  3  4  1  0
  4  5  1  0
  5  6  1  0
  5  7  1  0
  7  8  2  0
  7  9  1  0
  4 10  1  0
 10 11  1  0
 10 12  1  0
 12 13  1  0
 12  2  1  0
M  END
>  <SMILES>  (72) 
O=C1OC(C(O)C(=O)O)C(O)C1O

>  <Formula>  (72) 
C6H8O7

>  <MW>  (72) 
192.12299999999999

>  <HeavyAtoms>  (72) 
13

>  <TotalAtoms>  (72) 
13

>  <FormalCharge>  (72) 
0

>  <CLogP>  (72) 
-2.9209999999999998

>  <MolarRefractivity>  (72) 
35.536000000000001

>  <SP3Fraction>  (72) 
0.66700000000000004

>  <TPSA>  (72) 
124.29000000000001

>  <LabuteASA>  (72) 
72.171999999999997

>  <RotatableBonds>  (72) 
2

>  <LHBD>  (72) 
4

>  <HBD>  (72) 
4

>  <LHBA>  (72) 
7

>  <HBA>  (72) 
6

>  <TotalRings>  (72) 
1

>  <AromaticRings>  (72) 
0

>  <AromaticCarboCycles>  (72) 
0

>  <AromaticHeteroCycles>  (72) 
0

>  <AliphaticRings>  (72) 
1

>  <AliphaticCarboCycles>  (72) 
0

>  <AliphaticHeteroCycles>  (72) 
1

>  <Bridgehead>  (72) 
0

>  <Spiro>  (72) 
0

>  <LipinskiR3>  (72) 
0

>  <LipinskiR5>  (72) 
1

>  <Ghose>  (72) 
0

>  <Veber>  (72) 
1

>  <REOS>  (72) 
0

>  <Drug-like>  (72) 
1

>  <QED_MaxWeight>  (72) 
0.38200000000000001

>  <QED_MeanWeight>  (72) 
0.34499999999999997

>  <QED_NoWeight>  (72) 
0.318

>  <Reference_Name>  (72) 
CHEMBL25

>  <Reference_SMILES>  (72) 
CC(=O)Oc1ccccc1C(=O)O

>  <Reference_Molecule_SMILES>  (72) 
CC(=O)Oc1ccccc1C(=O)O

>  <Morgan_Tanimoto_Distance>  (72) 
0.82758620689655171

>  <CATS_Euclidean_Distance>  (72) 
42.461747491124292

>  <Gobbi_2Dphp_Tanimoto_Distance>  (72) 
0.95723684210526316

>  <2Dphp_Tanimoto_Distance>  (72) 
0.77966101694915257

>  <Synthetic_Accessibility>  (72) 
4.046476539229328

$$$$
CHEMBL25-Var3130
     RDKit          2D

 11 11  0  0  0  0  0  0  0  0999 V2000
    3.0000    0.0000    0.0000 N   0  0  0  0  0  0  0  0  0  0  0  0
    1.5000    0.0000    0.0000 C   0  0  0  0  0  0  0  0  0  0  0  0
    0.7500   -1.2990    0.0000 C   0  0  0  0  0  0  0  0  0  0  0  0
    1.5000   -2.5981    0.0000 C   0  0  0  0  0  0  0  0  0  0  0  0
    3.0000   -2.5981    0.0000 O   0  0  0  0  0  0  0  0  0  0  0  0
    0.7500   -3.8971    0.0000 O   0  0  0  0  0  0  0  0  0  0  0  0
   -0.7500   -1.2990    0.0000 C   0  0  0  0  0  0  0  0  0  0  0  0
   -1.5000    0.0000    0.0000 C   0  0  0  0  0  0  0  0  0  0  0  0
   -0.7500    1.2990    0.0000 C   0  0  0  0  0  0  0  0  0  0  0  0
    0.7500    1.2990    0.0000 C   0  0  0  0  0  0  0  0  0  0  0  0
    1.5000    2.5981    0.0000 O   0  0  0  0  0  0  0  0  0  0  0  0
  1  2  1  0
  2  3  1  0
  3  4  1  0
  4  5  2  0
  4  6  1  0
  3  7  2  0
  7  8  1  0
  8  9  2  0
  9 10  1  0
 10 11  1  0
 10  2  1  0
M  END
>  <SMILES>  (73) 
NC1C(C(=O)O)=CC=CC1O

>  <Formula>  (73) 
C7H9NO3

>  <MW>  (73) 
155.15299999999999

>  <HeavyAtoms>  (73) 
11

>  <TotalAtoms>  (73) 
11

>  <FormalCharge>  (73) 
0

>  <CLogP>  (73) 
-0.745

>  <MolarRefractivity>  (73) 
38.841000000000001

>  <SP3Fraction>  (73) 
0.28599999999999998

>  <TPSA>  (73) 
83.549999999999997

>  <LabuteASA>  (73) 
63.634

>  <RotatableBonds>  (73) 
1

>  <LHBD>  (73) 
4

>  <HBD>  (73) 
3

>  <LHBA>  (73) 
4

>  <HBA>  (73) 
3

>  <TotalRings>  (73) 
1

>  <AromaticRings>  (73) 
0

>  <AromaticCarboCycles>  (73) 
0

>  <AromaticHeteroCycles>  (73) 
0

>  <AliphaticRings>  (73) 
1

>  <AliphaticCarboCycles>  (73) 
1

>  <AliphaticHeteroCycles>  (73) 
0

>  <Bridgehead>  (73) 
0

>  <Spiro>  (73) 
0

>  <LipinskiR3>  (73) 
0

>  <LipinskiR5>  (73) 
1

>  <Ghose>  (73) 
0

>  <Veber>  (73) 
1

>  <REOS>  (73) 
0

>  <Drug-like>  (73) 
1

>  <QED_MaxWeight>  (73) 
0.49099999999999999

>  <QED_MeanWeight>  (73) 
0.46500000000000002

>  <QED_NoWeight>  (73) 
0.50800000000000001

>  <Reference_Name>  (73) 
CHEMBL25

>  <Reference_SMILES>  (73) 
CC(=O)Oc1ccccc1C(=O)O

>  <Reference_Molecule_SMILES>  (73) 
CC(=O)Oc1ccccc1C(=O)O

>  <Morgan_Tanimoto_Distance>  (73) 
0.73076923076923084

>  <CATS_Euclidean_Distance>  (73) 
36.565010597564445

>  <Gobbi_2Dphp_Tanimoto_Distance>  (73) 
0.95454545454545459

>  <2Dphp_Tanimoto_Distance>  (73) 
0.74193548387096775

>  <Synthetic_Accessibility>  (73) 
4.0251565563599989

$$$$
CHEMBL25-Var2125
     RDKit          2D

 12 12  0  0  0  0  0  0  0  0999 V2000
    1.8302    1.1491    0.0000 C   0  0  0  0  0  0  0  0  0  0  0  0
    0.8660    0.0000    0.0000 C   0  0  0  0  0  0  0  0  0  0  0  0
    1.8302   -1.1491    0.0000 C   0  0  0  0  0  0  0  0  0  0  0  0
    1.3172   -2.5586    0.0000 O   0  0  0  0  0  0  0  0  0  0  0  0
    3.3074   -0.8886    0.0000 O   0  0  0  0  0  0  0  0  0  0  0  0
   -0.4330    0.7500    0.0000 C   0  0  0  0  0  0  0  0  0  0  0  0
   -0.4330   -0.7500    0.0000 C   0  0  0  0  0  0  0  0  0  0  0  0
   -1.1830   -2.0490    0.0000 C   0  0  0  0  0  0  0  0  0  0  0  0
   -0.4330   -3.3481    0.0000 N   0  0  0  0  0  0  0  0  0  0  0  0
   -2.6830   -2.0490    0.0000 C   0  0  0  0  0  0  0  0  0  0  0  0
   -3.4330   -0.7500    0.0000 O   0  0  0  0  0  0  0  0  0  0  0  0
   -3.4330   -3.3481    0.0000 O   0  0  0  0  0  0  0  0  0  0  0  0
  1  2  1  0
  2  3  1  0
  3  4  2  0
  3  5  1  0
  2  6  1  0
  6  7  1  0
  7  8  1  0
  8  9  1  0
  8 10  1  0
 10 11  2  0
 10 12  1  0
  7  2  1  0
M  END
>  <SMILES>  (74) 
CC1(C(=O)O)CC1C(N)C(=O)O

>  <Formula>  (74) 
C7H11NO4

>  <MW>  (74) 
173.16800000000001

>  <HeavyAtoms>  (74) 
12

>  <TotalAtoms>  (74) 
12

>  <FormalCharge>  (74) 
0

>  <CLogP>  (74) 
-0.49099999999999999

>  <MolarRefractivity>  (74) 
39.460999999999999

>  <SP3Fraction>  (74) 
0.71399999999999997

>  <TPSA>  (74) 
100.62

>  <LabuteASA>  (74) 
69.174000000000007

>  <RotatableBonds>  (74) 
3

>  <LHBD>  (74) 
4

>  <HBD>  (74) 
3

>  <LHBA>  (74) 
5

>  <HBA>  (74) 
3

>  <TotalRings>  (74) 
1

>  <AromaticRings>  (74) 
0

>  <AromaticCarboCycles>  (74) 
0

>  <AromaticHeteroCycles>  (74) 
0

>  <AliphaticRings>  (74) 
1

>  <AliphaticCarboCycles>  (74) 
1

>  <AliphaticHeteroCycles>  (74) 
0

>  <Bridgehead>  (74) 
0

>  <Spiro>  (74) 
0

>  <LipinskiR3>  (74) 
0

>  <LipinskiR5>  (74) 
1

>  <Ghose>  (74) 
0

>  <Veber>  (74) 
1

>  <REOS>  (74) 
0

>  <Drug-like>  (74) 
1

>  <QED_MaxWeight>  (74) 
0.56299999999999994

>  <QED_MeanWeight>  (74) 
0.53400000000000003

>  <QED_NoWeight>  (74) 
0.54100000000000004

>  <Reference_Name>  (74) 
CHEMBL25

>  <Reference_SMILES>  (74) 
CC(=O)Oc1ccccc1C(=O)O

>  <Reference_Molecule_SMILES>  (74) 
CC(=O)Oc1ccccc1C(=O)O

>  <Morgan_Tanimoto_Distance>  (74) 
0.82758620689655171

>  <CATS_Euclidean_Distance>  (74) 
36.837480912787726

>  <Gobbi_2Dphp_Tanimoto_Distance>  (74) 
0.95614035087719296

>  <2Dphp_Tanimoto_Distance>  (74) 
0.82608695652173914

>  <Synthetic_Accessibility>  (74) 
4.0209815494004006

$$$$
CHEMBL25-Var1779
     RDKit          2D

 12 12  0  0  0  0  0  0  0  0999 V2000
    3.3074    0.8886    0.0000 C   0  0  0  0  0  0  0  0  0  0  0  0
    1.8302    1.1491    0.0000 C   0  0  0  0  0  0  0  0  0  0  0  0
    0.8660    0.0000    0.0000 C   0  0  0  0  0  0  0  0  0  0  0  0
    1.8302   -1.1491    0.0000 C   0  0  0  0  0  0  0  0  0  0  0  0
    1.3172   -2.5586    0.0000 C   0  0  0  0  0  0  0  0  0  0  0  0
   -0.4330    0.7500    0.0000 C   0  0  0  0  0  0  0  0  0  0  0  0
   -1.1830    2.0490    0.0000 C   0  0  0  0  0  0  0  0  0  0  0  0
   -2.6830    2.0490    0.0000 O   0  0  0  0  0  0  0  0  0  0  0  0
   -0.4330    3.3481    0.0000 O   0  0  0  0  0  0  0  0  0  0  0  0
   -0.4330   -0.7500    0.0000 C   0  0  0  0  0  0  0  0  0  0  0  0
    0.0800   -2.1595    0.0000 Cl  0  0  0  0  0  0  0  0  0  0  0  0
   -1.9102   -1.0105    0.0000 Cl  0  0  0  0  0  0  0  0  0  0  0  0
  1  2  1  0
  2  3  1  0
  3  4  1  0
  4  5  1  0
  3  6  1  0
  6  7  1  0
  7  8  2  0
  7  9  1  0
  6 10  1  0
 10 11  1  0
 10 12  1  0
 10  3  1  0
M  END
>  <SMILES>  (75) 
CCC1(CC)C(C(=O)O)C1(Cl)Cl

>  <Formula>  (75) 
C8H12Cl2O2

>  <MW>  (75) 
211.08799999999999

>  <HeavyAtoms>  (75) 
12

>  <TotalAtoms>  (75) 
12

>  <FormalCharge>  (75) 
0

>  <CLogP>  (75) 
2.681

>  <MolarRefractivity>  (75) 
48.578000000000003

>  <SP3Fraction>  (75) 
0.875

>  <TPSA>  (75) 
37.299999999999997

>  <LabuteASA>  (75) 
81.849999999999994

>  <RotatableBonds>  (75) 
3

>  <LHBD>  (75) 
1

>  <HBD>  (75) 
1

>  <LHBA>  (75) 
2

>  <HBA>  (75) 
1

>  <TotalRings>  (75) 
1

>  <AromaticRings>  (75) 
0

>  <AromaticCarboCycles>  (75) 
0

>  <AromaticHeteroCycles>  (75) 
0

>  <AliphaticRings>  (75) 
1

>  <AliphaticCarboCycles>  (75) 
1

>  <AliphaticHeteroCycles>  (75) 
0

>  <Bridgehead>  (75) 
0

>  <Spiro>  (75) 
0

>  <LipinskiR3>  (75) 
1

>  <LipinskiR5>  (75) 
1

>  <Ghose>  (75) 
0

>  <Veber>  (75) 
1

>  <REOS>  (75) 
0

>  <Drug-like>  (75) 
1

>  <QED_MaxWeight>  (75) 
0.72199999999999998

>  <QED_MeanWeight>  (75) 
0.72799999999999998

>  <QED_NoWeight>  (75) 
0.77600000000000002

>  <Reference_Name>  (75) 
CHEMBL25

>  <Reference_SMILES>  (75) 
CC(=O)Oc1ccccc1C(=O)O

>  <Reference_Molecule_SMILES>  (75) 
CC(=O)Oc1ccccc1C(=O)O

>  <Morgan_Tanimoto_Distance>  (75) 
0.81481481481481488

>  <CATS_Euclidean_Distance>  (75) 
35.902646142032481

>  <Gobbi_2Dphp_Tanimoto_Distance>  (75) 
0.96875

>  <2Dphp_Tanimoto_Distance>  (75) 
0.85714285714285721

>  <Synthetic_Accessibility>  (75) 
4.011967709250273

$$$$
CHEMBL25-Var3683
     RDKit          2D

 12 12  0  0  0  0  0  0  0  0999 V2000
    3.7500    1.2990    0.0000 O   0  0  0  0  0  0  0  0  0  0  0  0
    3.0000    0.0000    0.0000 C   0  0  0  0  0  0  0  0  0  0  0  0
    3.7500   -1.2990    0.0000 O   0  0  0  0  0  0  0  0  0  0  0  0
    1.5000    0.0000    0.0000 C   0  0  0  0  0  0  0  0  0  0  0  0
    0.7500   -1.2990    0.0000 N   0  0  0  0  0  0  0  0  0  0  0  0
   -0.7500   -1.2990    0.0000 C   0  0  0  0  0  0  0  0  0  0  0  0
   -1.5000    0.0000    0.0000 C   0  0  0  0  0  0  0  0  0  0  0  0
   -3.0000    0.0000    0.0000 O   0  0  0  0  0  0  0  0  0  0  0  0
   -0.7500    1.2990    0.0000 C   0  0  0  0  0  0  0  0  0  0  0  0
   -1.5000    2.5981    0.0000 O   0  0  0  0  0  0  0  0  0  0  0  0
    0.7500    1.2990    0.0000 C   0  0  0  0  0  0  0  0  0  0  0  0
    1.5000    2.5981    0.0000 O   0  0  0  0  0  0  0  0  0  0  0  0
  1  2  2  0
  2  3  1  0
  2  4  1  0
  4  5  1  0
  5  6  1  0
  6  7  1  0
  7  8  1  0
  7  9  1  0
  9 10  1  0
  9 11  1  0
 11 12  1  0
 11  4  1  0
M  END
>  <SMILES>  (76) 
O=C(O)C1NCC(O)C(O)C1O

>  <Formula>  (76) 
C6H11NO5

>  <MW>  (76) 
177.15600000000001

>  <HeavyAtoms>  (76) 
12

>  <TotalAtoms>  (76) 
12

>  <FormalCharge>  (76) 
0

>  <CLogP>  (76) 
-2.8740000000000001

>  <MolarRefractivity>  (76) 
37.447000000000003

>  <SP3Fraction>  (76) 
0.83299999999999996

>  <TPSA>  (76) 
110.02

>  <LabuteASA>  (76) 
68.445999999999998

>  <RotatableBonds>  (76) 
1

>  <LHBD>  (76) 
5

>  <HBD>  (76) 
5

>  <LHBA>  (76) 
6

>  <HBA>  (76) 
5

>  <TotalRings>  (76) 
1

>  <AromaticRings>  (76) 
0

>  <AromaticCarboCycles>  (76) 
0

>  <AromaticHeteroCycles>  (76) 
0

>  <AliphaticRings>  (76) 
1

>  <AliphaticCarboCycles>  (76) 
0

>  <AliphaticHeteroCycles>  (76) 
1

>  <Bridgehead>  (76) 
0

>  <Spiro>  (76) 
0

>  <LipinskiR3>  (76) 
0

>  <LipinskiR5>  (76) 
1

>  <Ghose>  (76) 
0

>  <Veber>  (76) 
1

>  <REOS>  (76) 
0

>  <Drug-like>  (76) 
1

>  <QED_MaxWeight>  (76) 
0.32600000000000001

>  <QED_MeanWeight>  (76) 
0.29399999999999998

>  <QED_NoWeight>  (76) 
0.29999999999999999

>  <Reference_Name>  (76) 
CHEMBL25

>  <Reference_SMILES>  (76) 
CC(=O)Oc1ccccc1C(=O)O

>  <Reference_Molecule_SMILES>  (76) 
CC(=O)Oc1ccccc1C(=O)O

>  <Morgan_Tanimoto_Distance>  (76) 
0.84615384615384615

>  <CATS_Euclidean_Distance>  (76) 
41.097445176069037

>  <Gobbi_2Dphp_Tanimoto_Distance>  (76) 
0.97580645161290325

>  <2Dphp_Tanimoto_Distance>  (76) 
0.80597014925373134

>  <Synthetic_Accessibility>  (76) 
4.0041203763445594

$$$$
CHEMBL25-Var1024
     RDKit          2D

 15 15  0  0  0  0  0  0  0  0999 V2000
    6.0000   -2.5981    0.0000 C   0  0  0  0  0  0  0  0  0  0  0  0
    5.2500   -1.2990    0.0000 C   0  0  0  0  0  0  0  0  0  0  0  0
    6.0000    0.0000    0.0000 O   0  0  0  0  0  0  0  0  0  0  0  0
    3.7500   -1.2990    0.0000 O   0  0  0  0  0  0  0  0  0  0  0  0
    3.0000    0.0000    0.0000 C   0  0  0  0  0  0  0  0  0  0  0  0
    1.5000    0.0000    0.0000 C   0  0  0  0  0  0  0  0  0  0  0  0
    0.7500   -1.2990    0.0000 C   0  0  0  0  0  0  0  0  0  0  0  0
   -0.7500   -1.2990    0.0000 C   0  0  0  0  0  0  0  0  0  0  0  0
   -1.5000   -2.5981    0.0000 O   0  0  0  0  0  0  0  0  0  0  0  0
   -1.5000    0.0000    0.0000 C   0  0  0  0  0  0  0  0  0  0  0  0
   -3.0000    0.0000    0.0000 O   0  0  0  0  0  0  0  0  0  0  0  0
   -0.7500    1.2990    0.0000 C   0  0  0  0  0  0  0  0  0  0  0  0
   -1.5000    2.5981    0.0000 O   0  0  0  0  0  0  0  0  0  0  0  0
    0.7500    1.2990    0.0000 C   0  0  0  0  0  0  0  0  0  0  0  0
    1.5000    2.5981    0.0000 O   0  0  0  0  0  0  0  0  0  0  0  0
  1  2  1  0
  2  3  2  0
  2  4  1  0
  4  5  1  0
  5  6  1  0
  6  7  2  0
  7  8  1  0
  8  9  1  0
  8 10  1  0
 10 11  1  0
 10 12  1  0
 12 13  1  0
 12 14  1  0
 14 15  2  0
 14  6  1  0
M  END
>  <SMILES>  (77) 
CC(=O)OCC1=CC(O)C(O)C(O)C1=O

>  <Formula>  (77) 
C9H12O6

>  <MW>  (77) 
216.18899999999999

>  <HeavyAtoms>  (77) 
15

>  <TotalAtoms>  (77) 
15

>  <FormalCharge>  (77) 
0

>  <CLogP>  (77) 
-1.859

>  <MolarRefractivity>  (77) 
47.743000000000002

>  <SP3Fraction>  (77) 
0.55600000000000005

>  <TPSA>  (77) 
104.06

>  <LabuteASA>  (77) 
85.783000000000001

>  <RotatableBonds>  (77) 
2

>  <LHBD>  (77) 
3

>  <HBD>  (77) 
3

>  <LHBA>  (77) 
6

>  <HBA>  (77) 
6

>  <TotalRings>  (77) 
1

>  <AromaticRings>  (77) 
0

>  <AromaticCarboCycles>  (77) 
0

>  <AromaticHeteroCycles>  (77) 
0

>  <AliphaticRings>  (77) 
1

>  <AliphaticCarboCycles>  (77) 
1

>  <AliphaticHeteroCycles>  (77) 
0

>  <Bridgehead>  (77) 
0

>  <Spiro>  (77) 
0

>  <LipinskiR3>  (77) 
1

>  <LipinskiR5>  (77) 
1

>  <Ghose>  (77) 
0

>  <Veber>  (77) 
1

>  <REOS>  (77) 
1

>  <Drug-like>  (77) 
1

>  <QED_MaxWeight>  (77) 
0.503

>  <QED_MeanWeight>  (77) 
0.46800000000000003

>  <QED_NoWeight>  (77) 
0.45500000000000002

>  <Reference_Name>  (77) 
CHEMBL25

>  <Reference_SMILES>  (77) 
CC(=O)Oc1ccccc1C(=O)O

>  <Reference_Molecule_SMILES>  (77) 
CC(=O)Oc1ccccc1C(=O)O

>  <Morgan_Tanimoto_Distance>  (77) 
0.6785714285714286

>  <CATS_Euclidean_Distance>  (77) 
38.288379438153292

>  <Gobbi_2Dphp_Tanimoto_Distance>  (77) 
0.95945945945945943

>  <2Dphp_Tanimoto_Distance>  (77) 
0.63636363636363635

>  <Synthetic_Accessibility>  (77) 
3.9997913316485505

$$$$
CHEMBL25-Var506
     RDKit          2D

 15 15  0  0  0  0  0  0  0  0999 V2000
    5.0260    1.2990    0.0000 C   0  0  0  0  0  0  0  0  0  0  0  0
    3.5260    1.2990    0.0000 C   0  0  0  0  0  0  0  0  0  0  0  0
    2.7760    2.5981    0.0000 O   0  0  0  0  0  0  0  0  0  0  0  0
    2.7760    0.0000    0.0000 O   0  0  0  0  0  0  0  0  0  0  0  0
    1.2760    0.0000    0.0000 C   0  0  0  0  0  0  0  0  0  0  0  0
    0.3943    1.2135    0.0000 O   0  0  0  0  0  0  0  0  0  0  0  0
   -1.0323    0.7500    0.0000 C   0  0  0  0  0  0  0  0  0  0  0  0
   -2.2458    1.6317    0.0000 O   0  0  0  0  0  0  0  0  0  0  0  0
   -1.0323   -0.7500    0.0000 C   0  0  0  0  0  0  0  0  0  0  0  0
   -1.3442   -2.2172    0.0000 C   0  0  0  0  0  0  0  0  0  0  0  0
   -2.5241   -0.5932    0.0000 C   0  0  0  0  0  0  0  0  0  0  0  0
   -3.1342    0.7771    0.0000 C   0  0  0  0  0  0  0  0  0  0  0  0
   -3.4057   -1.8067    0.0000 O   0  0  0  0  0  0  0  0  0  0  0  0
    0.3943   -1.2135    0.0000 C   0  0  0  0  0  0  0  0  0  0  0  0
    0.8578   -2.6401    0.0000 C   0  0  0  0  0  0  0  0  0  0  0  0
  1  2  1  0
  2  3  2  0
  2  4  1  0
  4  5  1  0
  5  6  1  0
  6  7  1  0
  7  8  2  0
  7  9  1  0
  9 10  1  0
  9 11  1  0
 11 12  1  0
 11 13  2  0
  9 14  1  0
 14 15  1  0
 14  5  1  0
M  END
>  <SMILES>  (78) 
CC(=O)OC1OC(=O)C(C)(C(C)=O)C1C

>  <Formula>  (78) 
C10H14O5

>  <MW>  (78) 
214.21700000000001

>  <HeavyAtoms>  (78) 
15

>  <TotalAtoms>  (78) 
15

>  <FormalCharge>  (78) 
0

>  <CLogP>  (78) 
0.66400000000000003

>  <MolarRefractivity>  (78) 
49.597999999999999

>  <SP3Fraction>  (78) 
0.69999999999999996

>  <TPSA>  (78) 
69.670000000000002

>  <LabuteASA>  (78) 
87.730000000000004

>  <RotatableBonds>  (78) 
2

>  <LHBD>  (78) 
0

>  <HBD>  (78) 
0

>  <LHBA>  (78) 
5

>  <HBA>  (78) 
5

>  <TotalRings>  (78) 
1

>  <AromaticRings>  (78) 
0

>  <AromaticCarboCycles>  (78) 
0

>  <AromaticHeteroCycles>  (78) 
0

>  <AliphaticRings>  (78) 
1

>  <AliphaticCarboCycles>  (78) 
0

>  <AliphaticHeteroCycles>  (78) 
1

>  <Bridgehead>  (78) 
0

>  <Spiro>  (78) 
0

>  <LipinskiR3>  (78) 
1

>  <LipinskiR5>  (78) 
1

>  <Ghose>  (78) 
0

>  <Veber>  (78) 
1

>  <REOS>  (78) 
1

>  <Drug-like>  (78) 
1

>  <QED_MaxWeight>  (78) 
0.45700000000000002

>  <QED_MeanWeight>  (78) 
0.499

>  <QED_NoWeight>  (78) 
0.58999999999999997

>  <Reference_Name>  (78) 
CHEMBL25

>  <Reference_SMILES>  (78) 
CC(=O)Oc1ccccc1C(=O)O

>  <Reference_Molecule_SMILES>  (78) 
CC(=O)Oc1ccccc1C(=O)O

>  <Morgan_Tanimoto_Distance>  (78) 
0.72413793103448276

>  <CATS_Euclidean_Distance>  (78) 
34.698703145794944

>  <Gobbi_2Dphp_Tanimoto_Distance>  (78) 
0.92307692307692313

>  <2Dphp_Tanimoto_Distance>  (78) 
0.80000000000000004

>  <Synthetic_Accessibility>  (78) 
3.9991700298734028

$$$$
CHEMBL25-Var2964
     RDKit          2D

 11 10  0  0  0  0  0  0  0  0999 V2000
    0.0000    0.0000    0.0000 C   0  0  0  0  0  0  0  0  0  0  0  0
    1.2990    0.7500    0.0000 C   0  0  0  0  0  0  0  0  0  0  0  0
    2.5981   -0.0000    0.0000 C   0  0  0  0  0  0  0  0  0  0  0  0
    3.8971    0.7500    0.0000 S   0  0  0  0  0  0  0  0  0  0  0  0
    3.8971    2.2500    0.0000 O   0  0  0  0  0  0  0  0  0  0  0  0
    5.1962   -0.0000    0.0000 C   0  0  0  0  0  0  0  0  0  0  0  0
    6.4952    0.7500    0.0000 C   0  0  0  0  0  0  0  0  0  0  0  0
    6.4952    2.2500    0.0000 N   0  0  0  0  0  0  0  0  0  0  0  0
    7.7942   -0.0000    0.0000 C   0  0  0  0  0  0  0  0  0  0  0  0
    7.7942   -1.5000    0.0000 O   0  0  0  0  0  0  0  0  0  0  0  0
    9.0933    0.7500    0.0000 O   0  0  0  0  0  0  0  0  0  0  0  0
  1  2  2  0
  2  3  1  0
  3  4  1  0
  4  5  2  0
  4  6  1  0
  6  7  1  0
  7  8  1  0
  7  9  1  0
  9 10  2  0
  9 11  1  0
M  END
>  <SMILES>  (79) 
C=CCS(=O)CC(N)C(=O)O

>  <Formula>  (79) 
C6H11NO3S

>  <MW>  (79) 
177.22499999999999

>  <HeavyAtoms>  (79) 
11

>  <TotalAtoms>  (79) 
11

>  <FormalCharge>  (79) 
0

>  <CLogP>  (79) 
-0.66700000000000004

>  <MolarRefractivity>  (79) 
43.685000000000002

>  <SP3Fraction>  (79) 
0.5

>  <TPSA>  (79) 
80.390000000000001

>  <LabuteASA>  (79) 
67.543999999999997

>  <RotatableBonds>  (79) 
5

>  <LHBD>  (79) 
3

>  <HBD>  (79) 
2

>  <LHBA>  (79) 
4

>  <HBA>  (79) 
3

>  <TotalRings>  (79) 
0

>  <AromaticRings>  (79) 
0

>  <AromaticCarboCycles>  (79) 
0

>  <AromaticHeteroCycles>  (79) 
0

>  <AliphaticRings>  (79) 
0

>  <AliphaticCarboCycles>  (79) 
0

>  <AliphaticHeteroCycles>  (79) 
0

>  <Bridgehead>  (79) 
0

>  <Spiro>  (79) 
0

>  <LipinskiR3>  (79) 
1

>  <LipinskiR5>  (79) 
1

>  <Ghose>  (79) 
0

>  <Veber>  (79) 
1

>  <REOS>  (79) 
0

>  <Drug-like>  (79) 
0

>  <QED_MaxWeight>  (79) 
0.56499999999999995

>  <QED_MeanWeight>  (79) 
0.54600000000000004

>  <QED_NoWeight>  (79) 
0.58799999999999997

>  <Reference_Name>  (79) 
CHEMBL25

>  <Reference_SMILES>  (79) 
CC(=O)Oc1ccccc1C(=O)O

>  <Reference_Molecule_SMILES>  (79) 
CC(=O)Oc1ccccc1C(=O)O

>  <Morgan_Tanimoto_Distance>  (79) 
0.87096774193548387

>  <CATS_Euclidean_Distance>  (79) 
35.580893749314392

>  <Gobbi_2Dphp_Tanimoto_Distance>  (79) 
0.94444444444444442

>  <2Dphp_Tanimoto_Distance>  (79) 
0.84946236559139787

>  <Synthetic_Accessibility>  (79) 
3.9981621834914876

$$$$
CHEMBL25-Var1807
     RDKit          2D

 14 14  0  0  0  0  0  0  0  0999 V2000
    3.5260    1.2990    0.0000 C   0  0  0  0  0  0  0  0  0  0  0  0
    2.7760    0.0000    0.0000 C   0  0  0  0  0  0  0  0  0  0  0  0
    3.5260   -1.2990    0.0000 C   0  0  0  0  0  0  0  0  0  0  0  0
    1.2760    0.0000    0.0000 C   0  0  0  0  0  0  0  0  0  0  0  0
    0.3943    1.2135    0.0000 C   0  0  0  0  0  0  0  0  0  0  0  0
   -1.0323    0.7500    0.0000 N   0  0  0  0  0  0  0  0  0  0  0  0
   -1.0323   -0.7500    0.0000 C   0  0  0  0  0  0  0  0  0  0  0  0
   -2.2458   -1.6317    0.0000 C   0  0  0  0  0  0  0  0  0  0  0  0
   -2.0890   -3.1235    0.0000 O   0  0  0  0  0  0  0  0  0  0  0  0
   -3.6161   -1.0216    0.0000 O   0  0  0  0  0  0  0  0  0  0  0  0
    0.3943   -1.2135    0.0000 C   0  0  0  0  0  0  0  0  0  0  0  0
    0.8578   -2.6401    0.0000 C   0  0  0  0  0  0  0  0  0  0  0  0
    2.3250   -2.9520    0.0000 O   0  0  0  0  0  0  0  0  0  0  0  0
   -0.1459   -3.7548    0.0000 O   0  0  0  0  0  0  0  0  0  0  0  0
  1  2  2  0
  2  3  1  0
  2  4  1  0
  4  5  1  0
  5  6  1  0
  6  7  1  0
  7  8  1  0
  8  9  2  0
  8 10  1  0
  7 11  1  0
 11 12  1  0
 12 13  2  0
 12 14  1  0
 11  4  1  0
M  END
>  <SMILES>  (80) 
C=C(C)C1CNC(C(=O)O)C1C(=O)O

>  <Formula>  (80) 
C9H13NO4

>  <MW>  (80) 
199.20599999999999

>  <HeavyAtoms>  (80) 
14

>  <TotalAtoms>  (80) 
14

>  <FormalCharge>  (80) 
0

>  <CLogP>  (80) 
-0.064000000000000001

>  <MolarRefractivity>  (80) 
48.856000000000002

>  <SP3Fraction>  (80) 
0.55600000000000005

>  <TPSA>  (80) 
86.629999999999995

>  <LabuteASA>  (80) 
81.424999999999997

>  <RotatableBonds>  (80) 
3

>  <LHBD>  (80) 
3

>  <HBD>  (80) 
3

>  <LHBA>  (80) 
5

>  <HBA>  (80) 
3

>  <TotalRings>  (80) 
1

>  <AromaticRings>  (80) 
0

>  <AromaticCarboCycles>  (80) 
0

>  <AromaticHeteroCycles>  (80) 
0

>  <AliphaticRings>  (80) 
1

>  <AliphaticCarboCycles>  (80) 
0

>  <AliphaticHeteroCycles>  (80) 
1

>  <Bridgehead>  (80) 
0

>  <Spiro>  (80) 
0

>  <LipinskiR3>  (80) 
1

>  <LipinskiR5>  (80) 
1

>  <Ghose>  (80) 
0

>  <Veber>  (80) 
1

>  <REOS>  (80) 
0

>  <Drug-like>  (80) 
1

>  <QED_MaxWeight>  (80) 
0.56200000000000006

>  <QED_MeanWeight>  (80) 
0.55400000000000005

>  <QED_NoWeight>  (80) 
0.58399999999999996

>  <Reference_Name>  (80) 
CHEMBL25

>  <Reference_SMILES>  (80) 
CC(=O)Oc1ccccc1C(=O)O

>  <Reference_Molecule_SMILES>  (80) 
CC(=O)Oc1ccccc1C(=O)O

>  <Morgan_Tanimoto_Distance>  (80) 
0.7857142857142857

>  <CATS_Euclidean_Distance>  (80) 
38.131351929875237

>  <Gobbi_2Dphp_Tanimoto_Distance>  (80) 
0.97340425531914898

>  <2Dphp_Tanimoto_Distance>  (80) 
0.84466019417475735

>  <Synthetic_Accessibility>  (80) 
3.9962713429154704

$$$$
CHEMBL25-Var3703
     RDKit          2D

 14 15  0  0  0  0  0  0  0  0999 V2000
    3.0344    4.0587    0.0000 O   0  0  0  0  0  0  0  0  0  0  0  0
    1.8209    3.1771    0.0000 C   0  0  0  0  0  0  0  0  0  0  0  0
    0.3943    3.6406    0.0000 N   0  0  0  0  0  0  0  0  0  0  0  0
   -0.4874    2.4271    0.0000 C   0  0  0  0  0  0  0  0  0  0  0  0
   -1.9874    2.4271    0.0000 O   0  0  0  0  0  0  0  0  0  0  0  0
    0.3943    1.2135    0.0000 C   0  0  0  0  0  0  0  0  0  0  0  0
    1.2760    0.0000    0.0000 C   0  0  0  0  0  0  0  0  0  0  0  0
    0.3943   -1.2135    0.0000 C   0  0  0  0  0  0  0  0  0  0  0  0
   -1.0323   -0.7500    0.0000 C   0  0  0  0  0  0  0  0  0  0  0  0
   -2.2458   -1.6317    0.0000 C   0  0  0  0  0  0  0  0  0  0  0  0
   -2.0890   -3.1235    0.0000 O   0  0  0  0  0  0  0  0  0  0  0  0
   -3.6161   -1.0216    0.0000 O   0  0  0  0  0  0  0  0  0  0  0  0
   -1.0323    0.7500    0.0000 C   0  0  0  0  0  0  0  0  0  0  0  0
    1.8209    1.6771    0.0000 N   0  0  0  0  0  0  0  0  0  0  0  0
  1  2  2  0
  2  3  1  0
  3  4  1  0
  4  5  2  0
  4  6  1  0
  6  7  1  0
  7  8  1  0
  8  9  1  0
  9 10  1  0
 10 11  2  0
 10 12  1  0
  9 13  1  0
  6 14  1  0
 14  2  1  0
 13  6  1  0
M  END
>  <SMILES>  (81) 
O=C1NC(=O)C2(CCC(C(=O)O)C2)N1

>  <Formula>  (81) 
C8H10N2O4

>  <MW>  (81) 
198.178

>  <HeavyAtoms>  (81) 
14

>  <TotalAtoms>  (81) 
14

>  <FormalCharge>  (81) 
0

>  <CLogP>  (81) 
-0.55100000000000005

>  <MolarRefractivity>  (81) 
44.381999999999998

>  <SP3Fraction>  (81) 
0.625

>  <TPSA>  (81) 
95.5

>  <LabuteASA>  (81) 
79.661000000000001

>  <RotatableBonds>  (81) 
1

>  <LHBD>  (81) 
3

>  <HBD>  (81) 
3

>  <LHBA>  (81) 
6

>  <HBA>  (81) 
3

>  <TotalRings>  (81) 
2

>  <AromaticRings>  (81) 
0

>  <AromaticCarboCycles>  (81) 
0

>  <AromaticHeteroCycles>  (81) 
0

>  <AliphaticRings>  (81) 
2

>  <AliphaticCarboCycles>  (81) 
1

>  <AliphaticHeteroCycles>  (81) 
1

>  <Bridgehead>  (81) 
0

>  <Spiro>  (81) 
1

>  <LipinskiR3>  (81) 
1

>  <LipinskiR5>  (81) 
1

>  <Ghose>  (81) 
0

>  <Veber>  (81) 
1

>  <REOS>  (81) 
0

>  <Drug-like>  (81) 
1

>  <QED_MaxWeight>  (81) 
0.505

>  <QED_MeanWeight>  (81) 
0.49199999999999999

>  <QED_NoWeight>  (81) 
0.53200000000000003

>  <Reference_Name>  (81) 
CHEMBL25

>  <Reference_SMILES>  (81) 
CC(=O)Oc1ccccc1C(=O)O

>  <Reference_Molecule_SMILES>  (81) 
CC(=O)Oc1ccccc1C(=O)O

>  <Morgan_Tanimoto_Distance>  (81) 
0.83333333333333337

>  <CATS_Euclidean_Distance>  (81) 
37.336309405188942

>  <Gobbi_2Dphp_Tanimoto_Distance>  (81) 
0.95857988165680474

>  <2Dphp_Tanimoto_Distance>  (81) 
0.7192982456140351

>  <Synthetic_Accessibility>  (81) 
3.9871839364257653

$$$$
CHEMBL25-Var182
     RDKit          2D

 15 16  0  0  0  0  0  0  0  0999 V2000
    4.0670    3.3481    0.0000 C   0  0  0  0  0  0  0  0  0  0  0  0
    2.5670    3.3481    0.0000 C   0  0  0  0  0  0  0  0  0  0  0  0
    1.8170    4.6471    0.0000 O   0  0  0  0  0  0  0  0  0  0  0  0
    1.8170    2.0490    0.0000 C   0  0  0  0  0  0  0  0  0  0  0  0
    0.3170    2.0490    0.0000 C   0  0  0  0  0  0  0  0  0  0  0  0
   -0.4330    0.7500    0.0000 C   0  0  0  0  0  0  0  0  0  0  0  0
    0.8660    0.0000    0.0000 O   0  0  0  0  0  0  0  0  0  0  0  0
   -0.4330   -0.7500    0.0000 C   0  0  0  0  0  0  0  0  0  0  0  0
   -1.1830    0.5490    0.0000 C   0  0  0  0  0  0  0  0  0  0  0  0
   -1.7321   -1.5000    0.0000 C   0  0  0  0  0  0  0  0  0  0  0  0
   -3.0311   -0.7500    0.0000 C   0  0  0  0  0  0  0  0  0  0  0  0
   -3.0311    0.7500    0.0000 C   0  0  0  0  0  0  0  0  0  0  0  0
   -1.7321    1.5000    0.0000 C   0  0  0  0  0  0  0  0  0  0  0  0
   -0.7679    2.6491    0.0000 C   0  0  0  0  0  0  0  0  0  0  0  0
   -2.6962    2.6491    0.0000 C   0  0  0  0  0  0  0  0  0  0  0  0
  1  2  1  0
  2  3  2  0
  2  4  1  0
  4  5  2  3
  5  6  1  0
  6  7  1  0
  7  8  1  0
  8  9  1  0
  8 10  1  0
 10 11  1  0
 11 12  1  0
 12 13  1  0
 13 14  1  0
 13 15  1  0
  8  6  1  0
 13  6  1  0
M  END
>  <SMILES>  (82) 
CC(=O)C=CC12OC1(C)CCCC2(C)C

>  <Formula>  (82) 
C13H20O2

>  <MW>  (82) 
208.30099999999999

>  <HeavyAtoms>  (82) 
15

>  <TotalAtoms>  (82) 
15

>  <FormalCharge>  (82) 
0

>  <CLogP>  (82) 
2.8690000000000002

>  <MolarRefractivity>  (82) 
59.673999999999999

>  <SP3Fraction>  (82) 
0.76900000000000002

>  <TPSA>  (82) 
29.600000000000001

>  <LabuteASA>  (82) 
91.691999999999993

>  <RotatableBonds>  (82) 
2

>  <LHBD>  (82) 
0

>  <HBD>  (82) 
0

>  <LHBA>  (82) 
2

>  <HBA>  (82) 
2

>  <TotalRings>  (82) 
2

>  <AromaticRings>  (82) 
0

>  <AromaticCarboCycles>  (82) 
0

>  <AromaticHeteroCycles>  (82) 
0

>  <AliphaticRings>  (82) 
2

>  <AliphaticCarboCycles>  (82) 
1

>  <AliphaticHeteroCycles>  (82) 
1

>  <Bridgehead>  (82) 
0

>  <Spiro>  (82) 
0

>  <LipinskiR3>  (82) 
1

>  <LipinskiR5>  (82) 
1

>  <Ghose>  (82) 
0

>  <Veber>  (82) 
1

>  <REOS>  (82) 
1

>  <Drug-like>  (82) 
1

>  <QED_MaxWeight>  (82) 
0.46600000000000003

>  <QED_MeanWeight>  (82) 
0.51600000000000001

>  <QED_NoWeight>  (82) 
0.621

>  <Reference_Name>  (82) 
CHEMBL25

>  <Reference_SMILES>  (82) 
CC(=O)Oc1ccccc1C(=O)O

>  <Reference_Molecule_SMILES>  (82) 
CC(=O)Oc1ccccc1C(=O)O

>  <Morgan_Tanimoto_Distance>  (82) 
0.83333333333333337

>  <CATS_Euclidean_Distance>  (82) 
35.651086939951774

>  <Gobbi_2Dphp_Tanimoto_Distance>  (82) 
1

>  <2Dphp_Tanimoto_Distance>  (82) 
0.9285714285714286

>  <Synthetic_Accessibility>  (82) 
3.9792506253388336

$$$$
CHEMBL25-Var2135
     RDKit          2D

 12 12  0  0  0  0  0  0  0  0999 V2000
    2.3660    0.0000    0.0000 C   0  0  0  0  0  0  0  0  0  0  0  0
    0.8660    0.0000    0.0000 C   0  0  0  0  0  0  0  0  0  0  0  0
   -0.4330    0.7500    0.0000 C   0  0  0  0  0  0  0  0  0  0  0  0
   -1.1830    2.0490    0.0000 C   0  0  0  0  0  0  0  0  0  0  0  0
   -2.6830    2.0490    0.0000 O   0  0  0  0  0  0  0  0  0  0  0  0
   -0.4330    3.3481    0.0000 O   0  0  0  0  0  0  0  0  0  0  0  0
   -0.4330   -0.7500    0.0000 C   0  0  0  0  0  0  0  0  0  0  0  0
   -1.1830   -2.0490    0.0000 C   0  0  0  0  0  0  0  0  0  0  0  0
   -0.4330   -3.3481    0.0000 N   0  0  0  0  0  0  0  0  0  0  0  0
   -2.6830   -2.0490    0.0000 C   0  0  0  0  0  0  0  0  0  0  0  0
   -3.4330   -0.7500    0.0000 O   0  0  0  0  0  0  0  0  0  0  0  0
   -3.4330   -3.3481    0.0000 O   0  0  0  0  0  0  0  0  0  0  0  0
  1  2  1  0
  2  3  1  0
  3  4  1  0
  4  5  2  0
  4  6  1  0
  3  7  1  0
  7  8  1  0
  8  9  1  0
  8 10  1  0
 10 11  2  0
 10 12  1  0
  7  2  1  0
M  END
>  <SMILES>  (83) 
CC1C(C(=O)O)C1C(N)C(=O)O

>  <Formula>  (83) 
C7H11NO4

>  <MW>  (83) 
173.16800000000001

>  <HeavyAtoms>  (83) 
12

>  <TotalAtoms>  (83) 
12

>  <FormalCharge>  (83) 
0

>  <CLogP>  (83) 
-0.63500000000000001

>  <MolarRefractivity>  (83) 
39.390999999999998

>  <SP3Fraction>  (83) 
0.71399999999999997

>  <TPSA>  (83) 
100.62

>  <LabuteASA>  (83) 
69.174000000000007

>  <RotatableBonds>  (83) 
3

>  <LHBD>  (83) 
4

>  <HBD>  (83) 
3

>  <LHBA>  (83) 
5

>  <HBA>  (83) 
3

>  <TotalRings>  (83) 
1

>  <AromaticRings>  (83) 
0

>  <AromaticCarboCycles>  (83) 
0

>  <AromaticHeteroCycles>  (83) 
0

>  <AliphaticRings>  (83) 
1

>  <AliphaticCarboCycles>  (83) 
1

>  <AliphaticHeteroCycles>  (83) 
0

>  <Bridgehead>  (83) 
0

>  <Spiro>  (83) 
0

>  <LipinskiR3>  (83) 
0

>  <LipinskiR5>  (83) 
1

>  <Ghose>  (83) 
0

>  <Veber>  (83) 
1

>  <REOS>  (83) 
0

>  <Drug-like>  (83) 
1

>  <QED_MaxWeight>  (83) 
0.55800000000000005

>  <QED_MeanWeight>  (83) 
0.52700000000000002

>  <QED_NoWeight>  (83) 
0.53400000000000003

>  <Reference_Name>  (83) 
CHEMBL25

>  <Reference_SMILES>  (83) 
CC(=O)Oc1ccccc1C(=O)O

>  <Reference_Molecule_SMILES>  (83) 
CC(=O)Oc1ccccc1C(=O)O

>  <Morgan_Tanimoto_Distance>  (83) 
0.81481481481481488

>  <CATS_Euclidean_Distance>  (83) 
43.646305685590391

>  <Gobbi_2Dphp_Tanimoto_Distance>  (83) 
0.97907949790794979

>  <2Dphp_Tanimoto_Distance>  (83) 
0.82795698924731176

>  <Synthetic_Accessibility>  (83) 
3.9750031058730944

$$$$
CHEMBL25-Var3122
     RDKit          2D

 13 14  0  0  0  0  0  0  0  0999 V2000
    2.3907   -1.0037    0.0000 N   0  0  0  0  0  0  0  0  0  0  0  0
    1.2760    0.0000    0.0000 C   0  0  0  0  0  0  0  0  0  0  0  0
    2.3907    1.0037    0.0000 C   0  0  0  0  0  0  0  0  0  0  0  0
    2.0788    2.4709    0.0000 O   0  0  0  0  0  0  0  0  0  0  0  0
    3.8173    0.5402    0.0000 O   0  0  0  0  0  0  0  0  0  0  0  0
    0.3943    1.2135    0.0000 C   0  0  0  0  0  0  0  0  0  0  0  0
   -1.0323    0.7500    0.0000 C   0  0  0  0  0  0  0  0  0  0  0  0
   -1.0323   -0.7500    0.0000 C   0  0  0  0  0  0  0  0  0  0  0  0
   -0.7204   -2.2172    0.0000 C   0  0  0  0  0  0  0  0  0  0  0  0
   -1.1839   -3.6438    0.0000 C   0  0  0  0  0  0  0  0  0  0  0  0
   -0.1802   -4.7585    0.0000 O   0  0  0  0  0  0  0  0  0  0  0  0
   -2.6512   -3.9557    0.0000 O   0  0  0  0  0  0  0  0  0  0  0  0
    0.3943   -1.2135    0.0000 C   0  0  0  0  0  0  0  0  0  0  0  0
  1  2  1  0
  2  3  1  0
  3  4  2  0
  3  5  1  0
  2  6  1  0
  6  7  1  0
  7  8  1  0
  8  9  1  0
  9 10  1  0
 10 11  2  0
 10 12  1  0
  9 13  1  0
 13  2  1  0
 13  8  1  0
M  END
>  <SMILES>  (84) 
NC1(C(=O)O)CCC2C(C(=O)O)C21

>  <Formula>  (84) 
C8H11NO4

>  <MW>  (84) 
185.179

>  <HeavyAtoms>  (84) 
13

>  <TotalAtoms>  (84) 
13

>  <FormalCharge>  (84) 
0

>  <CLogP>  (84) 
-0.49099999999999999

>  <MolarRefractivity>  (84) 
41.893999999999998

>  <SP3Fraction>  (84) 
0.75

>  <TPSA>  (84) 
100.62

>  <LabuteASA>  (84) 
74.534000000000006

>  <RotatableBonds>  (84) 
2

>  <LHBD>  (84) 
4

>  <HBD>  (84) 
3

>  <LHBA>  (84) 
5

>  <HBA>  (84) 
3

>  <TotalRings>  (84) 
2

>  <AromaticRings>  (84) 
0

>  <AromaticCarboCycles>  (84) 
0

>  <AromaticHeteroCycles>  (84) 
0

>  <AliphaticRings>  (84) 
2

>  <AliphaticCarboCycles>  (84) 
2

>  <AliphaticHeteroCycles>  (84) 
0

>  <Bridgehead>  (84) 
0

>  <Spiro>  (84) 
0

>  <LipinskiR3>  (84) 
0

>  <LipinskiR5>  (84) 
1

>  <Ghose>  (84) 
0

>  <Veber>  (84) 
1

>  <REOS>  (84) 
0

>  <Drug-like>  (84) 
1

>  <QED_MaxWeight>  (84) 
0.56699999999999995

>  <QED_MeanWeight>  (84) 
0.53900000000000003

>  <QED_NoWeight>  (84) 
0.54400000000000004

>  <Reference_Name>  (84) 
CHEMBL25

>  <Reference_SMILES>  (84) 
CC(=O)Oc1ccccc1C(=O)O

>  <Reference_Molecule_SMILES>  (84) 
CC(=O)Oc1ccccc1C(=O)O

>  <Morgan_Tanimoto_Distance>  (84) 
0.86206896551724133

>  <CATS_Euclidean_Distance>  (84) 
43.646305685590391

>  <Gobbi_2Dphp_Tanimoto_Distance>  (84) 
0.98402555910543132

>  <2Dphp_Tanimoto_Distance>  (84) 
0.82795698924731176

>  <Synthetic_Accessibility>  (84) 
3.9597407514876579

$$$$
CHEMBL25-Var4059
     RDKit          2D

 13 13  0  0  0  0  0  0  0  0999 V2000
    3.7500    1.2990    0.0000 O   0  0  0  0  0  0  0  0  0  0  0  0
    3.0000    0.0000    0.0000 C   0  0  0  0  0  0  0  0  0  0  0  0
    3.7500   -1.2990    0.0000 O   0  0  0  0  0  0  0  0  0  0  0  0
    1.5000    0.0000    0.0000 C   0  0  0  0  0  0  0  0  0  0  0  0
    0.7500   -1.2990    0.0000 N   0  0  0  0  0  0  0  0  0  0  0  0
   -0.7500   -1.2990    0.0000 C   0  0  0  0  0  0  0  0  0  0  0  0
   -1.5000   -2.5981    0.0000 C   0  0  0  0  0  0  0  0  0  0  0  0
   -0.7500   -3.8971    0.0000 O   0  0  0  0  0  0  0  0  0  0  0  0
   -3.0000   -2.5981    0.0000 O   0  0  0  0  0  0  0  0  0  0  0  0
   -1.5000    0.0000    0.0000 C   0  0  0  0  0  0  0  0  0  0  0  0
   -0.7500    1.2990    0.0000 C   0  0  0  0  0  0  0  0  0  0  0  0
   -1.5000    2.5981    0.0000 O   0  0  0  0  0  0  0  0  0  0  0  0
    0.7500    1.2990    0.0000 C   0  0  0  0  0  0  0  0  0  0  0  0
  1  2  2  0
  2  3  1  0
  2  4  1  0
  4  5  2  0
  5  6  1  0
  6  7  1  0
  7  8  2  0
  7  9  1  0
  6 10  1  0
 10 11  1  0
 11 12  1  0
 11 13  1  0
 13  4  1  0
M  END
>  <SMILES>  (85) 
O=C(O)C1=NC(C(=O)O)CC(O)C1

>  <Formula>  (85) 
C7H9NO5

>  <MW>  (85) 
187.15100000000001

>  <HeavyAtoms>  (85) 
13

>  <TotalAtoms>  (85) 
13

>  <FormalCharge>  (85) 
0

>  <CLogP>  (85) 
-0.88

>  <MolarRefractivity>  (85) 
41.734999999999999

>  <SP3Fraction>  (85) 
0.57099999999999995

>  <TPSA>  (85) 
107.19

>  <LabuteASA>  (85) 
73.524000000000001

>  <RotatableBonds>  (85) 
2

>  <LHBD>  (85) 
3

>  <HBD>  (85) 
3

>  <LHBA>  (85) 
6

>  <HBA>  (85) 
4

>  <TotalRings>  (85) 
1

>  <AromaticRings>  (85) 
0

>  <AromaticCarboCycles>  (85) 
0

>  <AromaticHeteroCycles>  (85) 
0

>  <AliphaticRings>  (85) 
1

>  <AliphaticCarboCycles>  (85) 
0

>  <AliphaticHeteroCycles>  (85) 
1

>  <Bridgehead>  (85) 
0

>  <Spiro>  (85) 
0

>  <LipinskiR3>  (85) 
1

>  <LipinskiR5>  (85) 
1

>  <Ghose>  (85) 
0

>  <Veber>  (85) 
1

>  <REOS>  (85) 
0

>  <Drug-like>  (85) 
1

>  <QED_MaxWeight>  (85) 
0.55500000000000005

>  <QED_MeanWeight>  (85) 
0.52000000000000002

>  <QED_NoWeight>  (85) 
0.51800000000000002

>  <Reference_Name>  (85) 
CHEMBL25

>  <Reference_SMILES>  (85) 
CC(=O)Oc1ccccc1C(=O)O

>  <Reference_Molecule_SMILES>  (85) 
CC(=O)Oc1ccccc1C(=O)O

>  <Morgan_Tanimoto_Distance>  (85) 
0.77777777777777779

>  <CATS_Euclidean_Distance>  (85) 
41.182520563948003

>  <Gobbi_2Dphp_Tanimoto_Distance>  (85) 
0.96902654867256632

>  <2Dphp_Tanimoto_Distance>  (85) 
0.84615384615384615

>  <Synthetic_Accessibility>  (85) 
3.958109451113879

$$$$
CHEMBL25-Var3862
     RDKit          2D

 15 16  0  0  0  0  0  0  0  0999 V2000
   -8.6640    1.7626    0.0000 O   0  0  0  0  0  0  0  0  0  0  0  0
   -7.9140    3.0616    0.0000 C   0  0  0  0  0  0  0  0  0  0  0  0
   -8.6640    4.3606    0.0000 O   0  0  0  0  0  0  0  0  0  0  0  0
   -6.4140    3.0616    0.0000 C   0  0  0  0  0  0  0  0  0  0  0  0
   -5.6640    1.7626    0.0000 C   0  0  0  0  0  0  0  0  0  0  0  0
   -4.1640    1.7626    0.0000 C   0  0  0  0  0  0  0  0  0  0  0  0
   -3.4140    3.0616    0.0000 O   0  0  0  0  0  0  0  0  0  0  0  0
   -3.4140    0.4635    0.0000 O   0  0  0  0  0  0  0  0  0  0  0  0
   -1.9140    0.4635    0.0000 C   0  0  0  0  0  0  0  0  0  0  0  0
   -1.0323    1.6771    0.0000 C   0  0  0  0  0  0  0  0  0  0  0  0
    0.3943    1.2135    0.0000 C   0  0  0  0  0  0  0  0  0  0  0  0
    1.2760    0.0000    0.0000 C   0  0  0  0  0  0  0  0  0  0  0  0
    0.3943   -1.2135    0.0000 C   0  0  0  0  0  0  0  0  0  0  0  0
   -1.0323   -0.7500    0.0000 C   0  0  0  0  0  0  0  0  0  0  0  0
   -1.0323    0.7500    0.0000 C   0  0  0  0  0  0  0  0  0  0  0  0
  1  2  2  0
  2  3  1  0
  2  4  1  0
  4  5  1  0
  5  6  1  0
  6  7  2  0
  6  8  1  0
  8  9  1  0
  9 10  1  0
 10 11  1  0
 11 12  1  0
 12 13  1  0
 13 14  1  0
 14 15  1  0
 14  9  1  0
 15 11  1  0
M  END
>  <SMILES>  (86) 
O=C(O)CCC(=O)OC1CC2CCC1C2

>  <Formula>  (86) 
C11H16O4

>  <MW>  (86) 
212.245

>  <HeavyAtoms>  (86) 
15

>  <TotalAtoms>  (86) 
15

>  <FormalCharge>  (86) 
0

>  <CLogP>  (86) 
1.583

>  <MolarRefractivity>  (86) 
52.198

>  <SP3Fraction>  (86) 
0.81799999999999995

>  <TPSA>  (86) 
63.600000000000001

>  <LabuteASA>  (86) 
88.608000000000004

>  <RotatableBonds>  (86) 
4

>  <LHBD>  (86) 
1

>  <HBD>  (86) 
1

>  <LHBA>  (86) 
4

>  <HBA>  (86) 
3

>  <TotalRings>  (86) 
2

>  <AromaticRings>  (86) 
0

>  <AromaticCarboCycles>  (86) 
0

>  <AromaticHeteroCycles>  (86) 
0

>  <AliphaticRings>  (86) 
2

>  <AliphaticCarboCycles>  (86) 
2

>  <AliphaticHeteroCycles>  (86) 
0

>  <Bridgehead>  (86) 
2

>  <Spiro>  (86) 
0

>  <LipinskiR3>  (86) 
1

>  <LipinskiR5>  (86) 
1

>  <Ghose>  (86) 
0

>  <Veber>  (86) 
1

>  <REOS>  (86) 
1

>  <Drug-like>  (86) 
1

>  <QED_MaxWeight>  (86) 
0.71499999999999997

>  <QED_MeanWeight>  (86) 
0.71799999999999997

>  <QED_NoWeight>  (86) 
0.76500000000000001

>  <Reference_Name>  (86) 
CHEMBL25

>  <Reference_SMILES>  (86) 
CC(=O)Oc1ccccc1C(=O)O

>  <Reference_Molecule_SMILES>  (86) 
CC(=O)Oc1ccccc1C(=O)O

>  <Morgan_Tanimoto_Distance>  (86) 
0.8214285714285714

>  <CATS_Euclidean_Distance>  (86) 
37.309516212355263

>  <Gobbi_2Dphp_Tanimoto_Distance>  (86) 
0.98989898989898994

>  <2Dphp_Tanimoto_Distance>  (86) 
0.77941176470588236

>  <Synthetic_Accessibility>  (86) 
3.9475598990456833

$$$$
CHEMBL25-Var1761
     RDKit          2D

 13 13  0  0  0  0  0  0  0  0999 V2000
    5.0260    1.2990    0.0000 C   0  0  0  0  0  0  0  0  0  0  0  0
    3.5260    1.2990    0.0000 S   0  0  0  0  0  0  0  0  0  0  0  0
    2.7760    0.0000    0.0000 C   0  0  0  0  0  0  0  0  0  0  0  0
    3.5260   -1.2990    0.0000 C   0  0  0  0  0  0  0  0  0  0  0  0
    2.7760   -2.5981    0.0000 O   0  0  0  0  0  0  0  0  0  0  0  0
    5.0260   -1.2990    0.0000 O   0  0  0  0  0  0  0  0  0  0  0  0
    1.2760    0.0000    0.0000 C   0  0  0  0  0  0  0  0  0  0  0  0
    0.3943    1.2135    0.0000 C   0  0  0  0  0  0  0  0  0  0  0  0
    0.8578    2.6401    0.0000 C   0  0  0  0  0  0  0  0  0  0  0  0
   -1.0323    0.7500    0.0000 O   0  0  0  0  0  0  0  0  0  0  0  0
   -1.0323   -0.7500    0.0000 N   0  0  0  0  0  0  0  0  0  0  0  0
    0.3943   -1.2135    0.0000 C   0  0  0  0  0  0  0  0  0  0  0  0
    0.8578   -2.6401    0.0000 O   0  0  0  0  0  0  0  0  0  0  0  0
  1  2  1  0
  2  3  1  0
  3  4  1  0
  4  5  2  0
  4  6  1  0
  3  7  1  0
  7  8  2  0
  8  9  1  0
  8 10  1  0
 10 11  1  0
 11 12  1  0
 12 13  2  0
 12  7  1  0
M  END
>  <SMILES>  (87) 
CSC(C(=O)O)c1c(C)o[nH]c1=O

>  <Formula>  (87) 
C7H9NO4S

>  <MW>  (87) 
203.21899999999999

>  <HeavyAtoms>  (87) 
13

>  <TotalAtoms>  (87) 
13

>  <FormalCharge>  (87) 
0

>  <CLogP>  (87) 
0.76500000000000001

>  <MolarRefractivity>  (87) 
47.957999999999998

>  <SP3Fraction>  (87) 
0.42899999999999999

>  <TPSA>  (87) 
83.299999999999997

>  <LabuteASA>  (87) 
78.096999999999994

>  <RotatableBonds>  (87) 
3

>  <LHBD>  (87) 
2

>  <HBD>  (87) 
2

>  <LHBA>  (87) 
5

>  <HBA>  (87) 
4

>  <TotalRings>  (87) 
1

>  <AromaticRings>  (87) 
1

>  <AromaticCarboCycles>  (87) 
0

>  <AromaticHeteroCycles>  (87) 
1

>  <AliphaticRings>  (87) 
0

>  <AliphaticCarboCycles>  (87) 
0

>  <AliphaticHeteroCycles>  (87) 
0

>  <Bridgehead>  (87) 
0

>  <Spiro>  (87) 
0

>  <LipinskiR3>  (87) 
1

>  <LipinskiR5>  (87) 
1

>  <Ghose>  (87) 
0

>  <Veber>  (87) 
1

>  <REOS>  (87) 
0

>  <Drug-like>  (87) 
1

>  <QED_MaxWeight>  (87) 
0.76400000000000001

>  <QED_MeanWeight>  (87) 
0.75700000000000001

>  <QED_NoWeight>  (87) 
0.76000000000000001

>  <Reference_Name>  (87) 
CHEMBL25

>  <Reference_SMILES>  (87) 
CC(=O)Oc1ccccc1C(=O)O

>  <Reference_Molecule_SMILES>  (87) 
CC(=O)Oc1ccccc1C(=O)O

>  <Morgan_Tanimoto_Distance>  (87) 
0.80645161290322576

>  <CATS_Euclidean_Distance>  (87) 
19.748417658131498

>  <Gobbi_2Dphp_Tanimoto_Distance>  (87) 
0.82558139534883723

>  <2Dphp_Tanimoto_Distance>  (87) 
0.64912280701754388

>  <Synthetic_Accessibility>  (87) 
3.9228382960413066

$$$$
CHEMBL25-Var3667
     RDKit          2D

 13 13  0  0  0  0  0  0  0  0999 V2000
    2.7760    0.0000    0.0000 O   0  0  0  0  0  0  0  0  0  0  0  0
    1.2760    0.0000    0.0000 C   0  0  0  0  0  0  0  0  0  0  0  0
    0.3943    1.2135    0.0000 C   0  0  0  0  0  0  0  0  0  0  0  0
   -1.0323    0.7500    0.0000 C   0  0  0  0  0  0  0  0  0  0  0  0
   -1.3442    2.2172    0.0000 O   0  0  0  0  0  0  0  0  0  0  0  0
   -2.5241    0.5932    0.0000 C   0  0  0  0  0  0  0  0  0  0  0  0
   -3.0873   -0.3441    0.0000 O   0  0  0  0  0  0  0  0  0  0  0  0
   -3.4057    1.8067    0.0000 O   0  0  0  0  0  0  0  0  0  0  0  0
   -1.0323   -0.7500    0.0000 C   0  0  0  0  0  0  0  0  0  0  0  0
   -2.2458   -1.6317    0.0000 C   0  0  0  0  0  0  0  0  0  0  0  0
   -2.0890   -3.1235    0.0000 O   0  0  0  0  0  0  0  0  0  0  0  0
   -3.2915   -1.3120    0.0000 O   0  0  0  0  0  0  0  0  0  0  0  0
    0.3943   -1.2135    0.0000 O   0  0  0  0  0  0  0  0  0  0  0  0
  1  2  2  0
  2  3  1  0
  3  4  1  0
  4  5  1  0
  4  6  1  0
  6  7  2  0
  6  8  1  0
  4  9  1  0
  9 10  1  0
 10 11  2  0
 10 12  1  0
  9 13  1  0
 13  2  1  0
M  END
>  <SMILES>  (88) 
O=C1CC(O)(C(=O)O)C(C(=O)O)O1

>  <Formula>  (88) 
C6H6O7

>  <MW>  (88) 
190.107

>  <HeavyAtoms>  (88) 
13

>  <TotalAtoms>  (88) 
13

>  <FormalCharge>  (88) 
0

>  <CLogP>  (88) 
-1.798

>  <MolarRefractivity>  (88) 
34.718000000000004

>  <SP3Fraction>  (88) 
0.5

>  <TPSA>  (88) 
121.13

>  <LabuteASA>  (88) 
71.539000000000001

>  <RotatableBonds>  (88) 
2

>  <LHBD>  (88) 
3

>  <HBD>  (88) 
3

>  <LHBA>  (88) 
7

>  <HBA>  (88) 
5

>  <TotalRings>  (88) 
1

>  <AromaticRings>  (88) 
0

>  <AromaticCarboCycles>  (88) 
0

>  <AromaticHeteroCycles>  (88) 
0

>  <AliphaticRings>  (88) 
1

>  <AliphaticCarboCycles>  (88) 
0

>  <AliphaticHeteroCycles>  (88) 
1

>  <Bridgehead>  (88) 
0

>  <Spiro>  (88) 
0

>  <LipinskiR3>  (88) 
0

>  <LipinskiR5>  (88) 
1

>  <Ghose>  (88) 
0

>  <Veber>  (88) 
1

>  <REOS>  (88) 
0

>  <Drug-like>  (88) 
1

>  <QED_MaxWeight>  (88) 
0.47599999999999998

>  <QED_MeanWeight>  (88) 
0.439

>  <QED_NoWeight>  (88) 
0.39800000000000002

>  <Reference_Name>  (88) 
CHEMBL25

>  <Reference_SMILES>  (88) 
CC(=O)Oc1ccccc1C(=O)O

>  <Reference_Molecule_SMILES>  (88) 
CC(=O)Oc1ccccc1C(=O)O

>  <Morgan_Tanimoto_Distance>  (88) 
0.82758620689655171

>  <CATS_Euclidean_Distance>  (88) 
49.305172142484203

>  <Gobbi_2Dphp_Tanimoto_Distance>  (88) 
0.95041322314049581

>  <2Dphp_Tanimoto_Distance>  (88) 
0.80000000000000004

>  <Synthetic_Accessibility>  (88) 
3.919108340459827

$$$$
CHEMBL25-Var2887
     RDKit          2D

 12 16  0  0  0  0  0  0  0  0999 V2000
    3.9584    0.7765    0.0000 O   0  0  0  0  0  0  0  0  0  0  0  0
    3.5702   -0.6724    0.0000 C   0  0  0  0  0  0  0  0  0  0  0  0
    4.6309   -1.7331    0.0000 O   0  0  0  0  0  0  0  0  0  0  0  0
    2.1213   -1.0607    0.0000 C   0  0  0  0  0  0  0  0  0  0  0  0
    1.0607    0.0000    0.0000 C   0  0  0  0  0  0  0  0  0  0  0  0
   -0.0000   -1.0607    0.0000 C   0  0  0  0  0  0  0  0  0  0  0  0
   -1.0607   -2.1213    0.0000 C   0  0  0  0  0  0  0  0  0  0  0  0
   -2.1213   -1.0607    0.0000 C   0  0  0  0  0  0  0  0  0  0  0  0
   -1.0607    0.0000    0.0000 C   0  0  0  0  0  0  0  0  0  0  0  0
    0.0000    1.0607    0.0000 C   0  0  0  0  0  0  0  0  0  0  0  0
    1.0607    2.1213    0.0000 C   0  0  0  0  0  0  0  0  0  0  0  0
    2.1213    1.0607    0.0000 C   0  0  0  0  0  0  0  0  0  0  0  0
  1  2  2  0
  2  3  1  0
  2  4  1  0
  4  5  1  0
  5  6  1  0
  6  7  1  0
  7  8  1  0
  8  9  1  0
  9 10  1  0
 10 11  1  0
 11 12  1  0
 10  5  1  0
 12  5  1  0
  9  6  1  0
 12  7  1  0
 11  8  1  0
M  END
>  <SMILES>  (89) 
O=C(O)CC12C3C4C5C3C1C5C42

>  <Formula>  (89) 
C10H10O2

>  <MW>  (89) 
162.18799999999999

>  <HeavyAtoms>  (89) 
12

>  <TotalAtoms>  (89) 
12

>  <FormalCharge>  (89) 
0

>  <CLogP>  (89) 
0.82899999999999996

>  <MolarRefractivity>  (89) 
39.116

>  <SP3Fraction>  (89) 
0.90000000000000002

>  <TPSA>  (89) 
37.299999999999997

>  <LabuteASA>  (89) 
69.950000000000003

>  <RotatableBonds>  (89) 
2

>  <LHBD>  (89) 
1

>  <HBD>  (89) 
1

>  <LHBA>  (89) 
2

>  <HBA>  (89) 
1

>  <TotalRings>  (89) 
6

>  <AromaticRings>  (89) 
0

>  <AromaticCarboCycles>  (89) 
0

>  <AromaticHeteroCycles>  (89) 
0

>  <AliphaticRings>  (89) 
6

>  <AliphaticCarboCycles>  (89) 
6

>  <AliphaticHeteroCycles>  (89) 
0

>  <Bridgehead>  (89) 
0

>  <Spiro>  (89) 
0

>  <LipinskiR3>  (89) 
1

>  <LipinskiR5>  (89) 
1

>  <Ghose>  (89) 
0

>  <Veber>  (89) 
1

>  <REOS>  (89) 
0

>  <Drug-like>  (89) 
1

>  <QED_MaxWeight>  (89) 
0.67200000000000004

>  <QED_MeanWeight>  (89) 
0.65300000000000002

>  <QED_NoWeight>  (89) 
0.69599999999999995

>  <Reference_Name>  (89) 
CHEMBL25

>  <Reference_SMILES>  (89) 
CC(=O)Oc1ccccc1C(=O)O

>  <Reference_Molecule_SMILES>  (89) 
CC(=O)Oc1ccccc1C(=O)O

>  <Morgan_Tanimoto_Distance>  (89) 
0.83333333333333337

>  <CATS_Euclidean_Distance>  (89) 
34.785054261852174

>  <Gobbi_2Dphp_Tanimoto_Distance>  (89) 
0.99047619047619051

>  <2Dphp_Tanimoto_Distance>  (89) 
0.890625

>  <Synthetic_Accessibility>  (89) 
3.9158895252087422

$$$$
CHEMBL25-Var308
     RDKit          2D

 13 13  0  0  0  0  0  0  0  0999 V2000
    2.7760   -5.1962    0.0000 C   0  0  0  0  0  0  0  0  0  0  0  0
    3.5260   -3.8971    0.0000 C   0  0  0  0  0  0  0  0  0  0  0  0
    5.0260   -3.8971    0.0000 O   0  0  0  0  0  0  0  0  0  0  0  0
    2.7760   -2.5981    0.0000 C   0  0  0  0  0  0  0  0  0  0  0  0
    3.5260   -1.2990    0.0000 C   0  0  0  0  0  0  0  0  0  0  0  0
    5.0260   -1.2990    0.0000 C   0  0  0  0  0  0  0  0  0  0  0  0
    2.7760    0.0000    0.0000 N   0  0  0  0  0  0  0  0  0  0  0  0
    1.2760    0.0000    0.0000 C   0  0  0  0  0  0  0  0  0  0  0  0
    0.3943    1.2135    0.0000 C   0  0  0  0  0  0  0  0  0  0  0  0
   -1.0323    0.7500    0.0000 O   0  0  0  0  0  0  0  0  0  0  0  0
   -1.0323   -0.7500    0.0000 N   0  0  0  0  0  0  0  0  0  0  0  0
    0.3943   -1.2135    0.0000 C   0  0  0  0  0  0  0  0  0  0  0  0
    0.8578   -2.6401    0.0000 O   0  0  0  0  0  0  0  0  0  0  0  0
  1  2  1  0
  2  3  2  0
  2  4  1  0
  4  5  2  3
  5  6  1  0
  5  7  1  0
  7  8  1  0
  8  9  1  0
  9 10  1  0
 10 11  1  0
 11 12  1  0
 12 13  2  0
 12  8  1  0
M  END
>  <SMILES>  (90) 
CC(=O)C=C(C)NC1CONC1=O

>  <Formula>  (90) 
C8H12N2O3

>  <MW>  (90) 
184.19499999999999

>  <HeavyAtoms>  (90) 
13

>  <TotalAtoms>  (90) 
13

>  <FormalCharge>  (90) 
0

>  <CLogP>  (90) 
-0.501

>  <MolarRefractivity>  (90) 
45.456000000000003

>  <SP3Fraction>  (90) 
0.5

>  <TPSA>  (90) 
67.430000000000007

>  <LabuteASA>  (90) 
76.088999999999999

>  <RotatableBonds>  (90) 
3

>  <LHBD>  (90) 
2

>  <HBD>  (90) 
2

>  <LHBA>  (90) 
5

>  <HBA>  (90) 
4

>  <TotalRings>  (90) 
1

>  <AromaticRings>  (90) 
0

>  <AromaticCarboCycles>  (90) 
0

>  <AromaticHeteroCycles>  (90) 
0

>  <AliphaticRings>  (90) 
1

>  <AliphaticCarboCycles>  (90) 
0

>  <AliphaticHeteroCycles>  (90) 
1

>  <Bridgehead>  (90) 
0

>  <Spiro>  (90) 
0

>  <LipinskiR3>  (90) 
1

>  <LipinskiR5>  (90) 
1

>  <Ghose>  (90) 
0

>  <Veber>  (90) 
1

>  <REOS>  (90) 
0

>  <Drug-like>  (90) 
1

>  <QED_MaxWeight>  (90) 
0.59699999999999998

>  <QED_MeanWeight>  (90) 
0.57999999999999996

>  <QED_NoWeight>  (90) 
0.626

>  <Reference_Name>  (90) 
CHEMBL25

>  <Reference_SMILES>  (90) 
CC(=O)Oc1ccccc1C(=O)O

>  <Reference_Molecule_SMILES>  (90) 
CC(=O)Oc1ccccc1C(=O)O

>  <Morgan_Tanimoto_Distance>  (90) 
0.8125

>  <CATS_Euclidean_Distance>  (90) 
37.080992435478315

>  <Gobbi_2Dphp_Tanimoto_Distance>  (90) 
0.93650793650793651

>  <2Dphp_Tanimoto_Distance>  (90) 
0.80392156862745101

>  <Synthetic_Accessibility>  (90) 
3.9007480956534595

$$$$
CHEMBL25-Var788
     RDKit          2D

 15 15  0  0  0  0  0  0  0  0999 V2000
    3.5260    1.2990    0.0000 C   0  0  0  0  0  0  0  0  0  0  0  0
    2.7760    0.0000    0.0000 O   0  0  0  0  0  0  0  0  0  0  0  0
    1.2760    0.0000    0.0000 C   0  0  0  0  0  0  0  0  0  0  0  0
    0.3943    1.2135    0.0000 O   0  0  0  0  0  0  0  0  0  0  0  0
   -1.0323    0.7500    0.0000 C   0  0  0  0  0  0  0  0  0  0  0  0
   -2.2458    1.6317    0.0000 C   0  0  0  0  0  0  0  0  0  0  0  0
   -2.0890    3.1235    0.0000 O   0  0  0  0  0  0  0  0  0  0  0  0
   -1.0323   -0.7500    0.0000 C   0  0  0  0  0  0  0  0  0  0  0  0
   -2.2458   -1.6317    0.0000 N   0  0  0  0  0  0  0  0  0  0  0  0
   -3.6161   -1.0216    0.0000 C   0  0  0  0  0  0  0  0  0  0  0  0
   -2.0890   -3.1235    0.0000 C   0  0  0  0  0  0  0  0  0  0  0  0
   -3.3025   -4.0051    0.0000 C   0  0  0  0  0  0  0  0  0  0  0  0
   -0.7187   -3.7336    0.0000 O   0  0  0  0  0  0  0  0  0  0  0  0
    0.3943   -1.2135    0.0000 C   0  0  0  0  0  0  0  0  0  0  0  0
    0.8578   -2.6401    0.0000 O   0  0  0  0  0  0  0  0  0  0  0  0
  1  2  1  0
  2  3  1  0
  3  4  1  0
  4  5  1  0
  5  6  1  0
  6  7  1  0
  5  8  1  0
  8  9  1  0
  9 10  1  0
  9 11  1  0
 11 12  1  0
 11 13  2  0
  8 14  1  0
 14 15  1  0
 14  3  1  0
M  END
>  <SMILES>  (91) 
COC1OC(CO)C(N(C)C(C)=O)C1O

>  <Formula>  (91) 
C9H17NO5

>  <MW>  (91) 
219.23699999999999

>  <HeavyAtoms>  (91) 
15

>  <TotalAtoms>  (91) 
15

>  <FormalCharge>  (91) 
0

>  <CLogP>  (91) 
-1.4419999999999999

>  <MolarRefractivity>  (91) 
50.994999999999997

>  <SP3Fraction>  (91) 
0.88900000000000001

>  <TPSA>  (91) 
79.230000000000004

>  <LabuteASA>  (91) 
88.390000000000001

>  <RotatableBonds>  (91) 
3

>  <LHBD>  (91) 
2

>  <HBD>  (91) 
2

>  <LHBA>  (91) 
6

>  <HBA>  (91) 
5

>  <TotalRings>  (91) 
1

>  <AromaticRings>  (91) 
0

>  <AromaticCarboCycles>  (91) 
0

>  <AromaticHeteroCycles>  (91) 
0

>  <AliphaticRings>  (91) 
1

>  <AliphaticCarboCycles>  (91) 
0

>  <AliphaticHeteroCycles>  (91) 
1

>  <Bridgehead>  (91) 
0

>  <Spiro>  (91) 
0

>  <LipinskiR3>  (91) 
1

>  <LipinskiR5>  (91) 
1

>  <Ghose>  (91) 
0

>  <Veber>  (91) 
1

>  <REOS>  (91) 
1

>  <Drug-like>  (91) 
1

>  <QED_MaxWeight>  (91) 
0.66100000000000003

>  <QED_MeanWeight>  (91) 
0.60699999999999998

>  <QED_NoWeight>  (91) 
0.59799999999999998

>  <Reference_Name>  (91) 
CHEMBL25

>  <Reference_SMILES>  (91) 
CC(=O)Oc1ccccc1C(=O)O

>  <Reference_Molecule_SMILES>  (91) 
CC(=O)Oc1ccccc1C(=O)O

>  <Morgan_Tanimoto_Distance>  (91) 
0.8125

>  <CATS_Euclidean_Distance>  (91) 
38.340579025361627

>  <Gobbi_2Dphp_Tanimoto_Distance>  (91) 
0.96846846846846846

>  <2Dphp_Tanimoto_Distance>  (91) 
0.78260869565217395

>  <Synthetic_Accessibility>  (91) 
3.898085669186333

$$$$
CHEMBL25-Var229
     RDKit          2D

 12 12  0  0  0  0  0  0  0  0999 V2000
    5.2500   -1.2990    0.0000 C   0  0  0  0  0  0  0  0  0  0  0  0
    3.7500   -1.2990    0.0000 C   0  0  0  0  0  0  0  0  0  0  0  0
    3.0000   -2.5981    0.0000 O   0  0  0  0  0  0  0  0  0  0  0  0
    3.0000    0.0000    0.0000 O   0  0  0  0  0  0  0  0  0  0  0  0
    1.5000    0.0000    0.0000 C   0  0  0  0  0  0  0  0  0  0  0  0
    0.7500   -1.2990    0.0000 C   0  0  0  0  0  0  0  0  0  0  0  0
   -0.7500   -1.2990    0.0000 C   0  0  0  0  0  0  0  0  0  0  0  0
   -1.5000   -2.5981    0.0000 C   0  0  0  0  0  0  0  0  0  0  0  0
   -1.5000    0.0000    0.0000 O   0  0  0  0  0  0  0  0  0  0  0  0
   -0.7500    1.2990    0.0000 C   0  0  0  0  0  0  0  0  0  0  0  0
   -1.5000    2.5981    0.0000 C   0  0  0  0  0  0  0  0  0  0  0  0
    0.7500    1.2990    0.0000 O   0  0  0  0  0  0  0  0  0  0  0  0
  1  2  1  0
  2  3  2  0
  2  4  1  0
  4  5  1  0
  5  6  1  0
  6  7  1  0
  7  8  1  0
  7  9  1  0
  9 10  1  0
 10 11  1  0
 10 12  1  0
 12  5  1  0
M  END
>  <SMILES>  (92) 
CC(=O)OC1CC(C)OC(C)O1

>  <Formula>  (92) 
C8H14O4

>  <MW>  (92) 
174.196

>  <HeavyAtoms>  (92) 
12

>  <TotalAtoms>  (92) 
12

>  <FormalCharge>  (92) 
0

>  <CLogP>  (92) 
1.0469999999999999

>  <MolarRefractivity>  (92) 
41.265000000000001

>  <SP3Fraction>  (92) 
0.875

>  <TPSA>  (92) 
44.759999999999998

>  <LabuteASA>  (92) 
71.790000000000006

>  <RotatableBonds>  (92) 
1

>  <LHBD>  (92) 
0

>  <HBD>  (92) 
0

>  <LHBA>  (92) 
4

>  <HBA>  (92) 
4

>  <TotalRings>  (92) 
1

>  <AromaticRings>  (92) 
0

>  <AromaticCarboCycles>  (92) 
0

>  <AromaticHeteroCycles>  (92) 
0

>  <AliphaticRings>  (92) 
1

>  <AliphaticCarboCycles>  (92) 
0

>  <AliphaticHeteroCycles>  (92) 
1

>  <Bridgehead>  (92) 
0

>  <Spiro>  (92) 
0

>  <LipinskiR3>  (92) 
1

>  <LipinskiR5>  (92) 
1

>  <Ghose>  (92) 
0

>  <Veber>  (92) 
1

>  <REOS>  (92) 
0

>  <Drug-like>  (92) 
1

>  <QED_MaxWeight>  (92) 
0.55400000000000005

>  <QED_MeanWeight>  (92) 
0.55700000000000005

>  <QED_NoWeight>  (92) 
0.627

>  <Reference_Name>  (92) 
CHEMBL25

>  <Reference_SMILES>  (92) 
CC(=O)Oc1ccccc1C(=O)O

>  <Reference_Molecule_SMILES>  (92) 
CC(=O)Oc1ccccc1C(=O)O

>  <Morgan_Tanimoto_Distance>  (92) 
0.73076923076923084

>  <CATS_Euclidean_Distance>  (92) 
34.409301068170507

>  <Gobbi_2Dphp_Tanimoto_Distance>  (92) 
0.91304347826086962

>  <2Dphp_Tanimoto_Distance>  (92) 
0.88235294117647056

>  <Synthetic_Accessibility>  (92) 
3.8958068378619393

$$$$
CHEMBL25-Var1638
     RDKit          2D

 15 15  0  0  0  0  0  0  0  0999 V2000
    2.6491    0.9642    0.0000 C   0  0  0  0  0  0  0  0  0  0  0  0
    1.5000    0.0000    0.0000 C   0  0  0  0  0  0  0  0  0  0  0  0
    2.6491   -0.9642    0.0000 C   0  0  0  0  0  0  0  0  0  0  0  0
    4.0586   -0.4512    0.0000 O   0  0  0  0  0  0  0  0  0  0  0  0
    2.3886   -2.4414    0.0000 O   0  0  0  0  0  0  0  0  0  0  0  0
    0.7500   -1.2990    0.0000 C   0  0  0  0  0  0  0  0  0  0  0  0
   -0.7500   -1.2990    0.0000 C   0  0  0  0  0  0  0  0  0  0  0  0
   -1.5000    0.0000    0.0000 C   0  0  0  0  0  0  0  0  0  0  0  0
   -3.0000    0.0000    0.0000 C   0  0  0  0  0  0  0  0  0  0  0  0
   -3.7500   -1.2990    0.0000 O   0  0  0  0  0  0  0  0  0  0  0  0
   -3.7500    1.2990    0.0000 O   0  0  0  0  0  0  0  0  0  0  0  0
   -0.7500    1.2990    0.0000 C   0  0  0  0  0  0  0  0  0  0  0  0
   -2.1595    1.8121    0.0000 C   0  0  0  0  0  0  0  0  0  0  0  0
   -0.4895    2.7762    0.0000 C   0  0  0  0  0  0  0  0  0  0  0  0
    0.7500    1.2990    0.0000 O   0  0  0  0  0  0  0  0  0  0  0  0
  1  2  1  0
  2  3  1  0
  3  4  2  0
  3  5  1  0
  2  6  1  0
  6  7  1  0
  7  8  1  0
  8  9  1  0
  9 10  2  0
  9 11  1  0
  8 12  1  0
 12 13  1  0
 12 14  1  0
 12 15  1  0
 15  2  1  0
M  END
>  <SMILES>  (93) 
CC1(C(=O)O)CCC(C(=O)O)C(C)(C)O1

>  <Formula>  (93) 
C10H16O5

>  <MW>  (93) 
216.233

>  <HeavyAtoms>  (93) 
15

>  <TotalAtoms>  (93) 
15

>  <FormalCharge>  (93) 
0

>  <CLogP>  (93) 
1.1200000000000001

>  <MolarRefractivity>  (93) 
51.564999999999998

>  <SP3Fraction>  (93) 
0.80000000000000004

>  <TPSA>  (93) 
83.829999999999998

>  <LabuteASA>  (93) 
88.043000000000006

>  <RotatableBonds>  (93) 
2

>  <LHBD>  (93) 
2

>  <HBD>  (93) 
2

>  <LHBA>  (93) 
5

>  <HBA>  (93) 
3

>  <TotalRings>  (93) 
1

>  <AromaticRings>  (93) 
0

>  <AromaticCarboCycles>  (93) 
0

>  <AromaticHeteroCycles>  (93) 
0

>  <AliphaticRings>  (93) 
1

>  <AliphaticCarboCycles>  (93) 
0

>  <AliphaticHeteroCycles>  (93) 
1

>  <Bridgehead>  (93) 
0

>  <Spiro>  (93) 
0

>  <LipinskiR3>  (93) 
1

>  <LipinskiR5>  (93) 
1

>  <Ghose>  (93) 
0

>  <Veber>  (93) 
1

>  <REOS>  (93) 
1

>  <Drug-like>  (93) 
1

>  <QED_MaxWeight>  (93) 
0.74099999999999999

>  <QED_MeanWeight>  (93) 
0.72199999999999998

>  <QED_NoWeight>  (93) 
0.72199999999999998

>  <Reference_Name>  (93) 
CHEMBL25

>  <Reference_SMILES>  (93) 
CC(=O)Oc1ccccc1C(=O)O

>  <Reference_Molecule_SMILES>  (93) 
CC(=O)Oc1ccccc1C(=O)O

>  <Morgan_Tanimoto_Distance>  (93) 
0.82758620689655171

>  <CATS_Euclidean_Distance>  (93) 
37.78888725538237

>  <Gobbi_2Dphp_Tanimoto_Distance>  (93) 
0.92753623188405798

>  <2Dphp_Tanimoto_Distance>  (93) 
0.68852459016393441

>  <Synthetic_Accessibility>  (93) 
3.8810305646100884

$$$$
CHEMBL25-Var437
     RDKit          2D

 15 15  0  0  0  0  0  0  0  0999 V2000
    6.0000   -2.5981    0.0000 C   0  0  0  0  0  0  0  0  0  0  0  0
    5.2500   -1.2990    0.0000 C   0  0  0  0  0  0  0  0  0  0  0  0
    3.7500   -1.2990    0.0000 C   0  0  0  0  0  0  0  0  0  0  0  0
    3.0000    0.0000    0.0000 O   0  0  0  0  0  0  0  0  0  0  0  0
    1.5000    0.0000    0.0000 C   0  0  0  0  0  0  0  0  0  0  0  0
    0.7500   -1.2990    0.0000 C   0  0  0  0  0  0  0  0  0  0  0  0
   -0.7500   -1.2990    0.0000 C   0  0  0  0  0  0  0  0  0  0  0  0
   -1.5000    0.0000    0.0000 C   0  0  0  0  0  0  0  0  0  0  0  0
   -3.0000    0.0000    0.0000 O   0  0  0  0  0  0  0  0  0  0  0  0
   -3.7500   -1.2990    0.0000 C   0  0  0  0  0  0  0  0  0  0  0  0
   -5.2500   -1.2990    0.0000 C   0  0  0  0  0  0  0  0  0  0  0  0
   -3.0000   -2.5981    0.0000 O   0  0  0  0  0  0  0  0  0  0  0  0
   -0.7500    1.2990    0.0000 C   0  0  0  0  0  0  0  0  0  0  0  0
   -1.5000    2.5981    0.0000 C   0  0  0  0  0  0  0  0  0  0  0  0
    0.7500    1.2990    0.0000 O   0  0  0  0  0  0  0  0  0  0  0  0
  1  2  1  0
  2  3  1  0
  3  4  1  0
  4  5  1  0
  5  6  1  0
  6  7  2  0
  7  8  1  0
  8  9  1  0
  9 10  1  0
 10 11  1  0
 10 12  2  0
  8 13  1  0
 13 14  1  0
 13 15  1  0
 15  5  1  0
M  END
>  <SMILES>  (94) 
CCCOC1C=CC(OC(C)=O)C(C)O1

>  <Formula>  (94) 
C11H18O4

>  <MW>  (94) 
214.261

>  <HeavyAtoms>  (94) 
15

>  <TotalAtoms>  (94) 
15

>  <FormalCharge>  (94) 
0

>  <CLogP>  (94) 
1.6459999999999999

>  <MolarRefractivity>  (94) 
55.271999999999998

>  <SP3Fraction>  (94) 
0.72699999999999998

>  <TPSA>  (94) 
44.759999999999998

>  <LabuteASA>  (94) 
90.194999999999993

>  <RotatableBonds>  (94) 
4

>  <LHBD>  (94) 
0

>  <HBD>  (94) 
0

>  <LHBA>  (94) 
4

>  <HBA>  (94) 
4

>  <TotalRings>  (94) 
1

>  <AromaticRings>  (94) 
0

>  <AromaticCarboCycles>  (94) 
0

>  <AromaticHeteroCycles>  (94) 
0

>  <AliphaticRings>  (94) 
1

>  <AliphaticCarboCycles>  (94) 
0

>  <AliphaticHeteroCycles>  (94) 
1

>  <Bridgehead>  (94) 
0

>  <Spiro>  (94) 
0

>  <LipinskiR3>  (94) 
1

>  <LipinskiR5>  (94) 
1

>  <Ghose>  (94) 
0

>  <Veber>  (94) 
1

>  <REOS>  (94) 
1

>  <Drug-like>  (94) 
1

>  <QED_MaxWeight>  (94) 
0.47699999999999998

>  <QED_MeanWeight>  (94) 
0.52700000000000002

>  <QED_NoWeight>  (94) 
0.63900000000000001

>  <Reference_Name>  (94) 
CHEMBL25

>  <Reference_SMILES>  (94) 
CC(=O)Oc1ccccc1C(=O)O

>  <Reference_Molecule_SMILES>  (94) 
CC(=O)Oc1ccccc1C(=O)O

>  <Morgan_Tanimoto_Distance>  (94) 
0.73333333333333339

>  <CATS_Euclidean_Distance>  (94) 
35.213633723318019

>  <Gobbi_2Dphp_Tanimoto_Distance>  (94) 
0.97872340425531912

>  <2Dphp_Tanimoto_Distance>  (94) 
0.83783783783783783

>  <Synthetic_Accessibility>  (94) 
3.872075846008487

$$$$
CHEMBL25-Var3925
     RDKit          2D

 13 13  0  0  0  0  0  0  0  0999 V2000
    3.5260    1.2990    0.0000 O   0  0  0  0  0  0  0  0  0  0  0  0
    2.7760    0.0000    0.0000 C   0  0  0  0  0  0  0  0  0  0  0  0
    3.5260   -1.2990    0.0000 O   0  0  0  0  0  0  0  0  0  0  0  0
    1.2760    0.0000    0.0000 C   0  0  0  0  0  0  0  0  0  0  0  0
    0.3943    1.2135    0.0000 C   0  0  0  0  0  0  0  0  0  0  0  0
   -1.0323    0.7500    0.0000 C   0  0  0  0  0  0  0  0  0  0  0  0
   -1.0323   -0.7500    0.0000 C   0  0  0  0  0  0  0  0  0  0  0  0
   -2.2458   -1.6317    0.0000 C   0  0  0  0  0  0  0  0  0  0  0  0
   -2.0890   -3.1235    0.0000 O   0  0  0  0  0  0  0  0  0  0  0  0
   -3.6161   -1.0216    0.0000 C   0  0  0  0  0  0  0  0  0  0  0  0
   -4.8297   -1.9033    0.0000 C   0  0  0  0  0  0  0  0  0  0  0  0
   -6.2000   -1.2931    0.0000 S   0  0  0  0  0  0  0  0  0  0  0  0
    0.3943   -1.2135    0.0000 C   0  0  0  0  0  0  0  0  0  0  0  0
  1  2  2  0
  2  3  1  0
  2  4  1  0
  4  5  1  0
  5  6  1  0
  6  7  1  0
  7  8  1  0
  8  9  2  0
  8 10  1  0
 10 11  2  3
 11 12  1  0
  7 13  1  0
 13  4  1  0
M  END
>  <SMILES>  (95) 
O=C(O)C1CCC(C(=O)C=CS)C1

>  <Formula>  (95) 
C9H12O3S

>  <MW>  (95) 
200.25899999999999

>  <HeavyAtoms>  (95) 
13

>  <TotalAtoms>  (95) 
13

>  <FormalCharge>  (95) 
0

>  <CLogP>  (95) 
1.5

>  <MolarRefractivity>  (95) 
51.600000000000001

>  <SP3Fraction>  (95) 
0.55600000000000005

>  <TPSA>  (95) 
54.369999999999997

>  <LabuteASA>  (95) 
82.236000000000004

>  <RotatableBonds>  (95) 
3

>  <LHBD>  (95) 
1

>  <HBD>  (95) 
2

>  <LHBA>  (95) 
3

>  <HBA>  (95) 
3

>  <TotalRings>  (95) 
1

>  <AromaticRings>  (95) 
0

>  <AromaticCarboCycles>  (95) 
0

>  <AromaticHeteroCycles>  (95) 
0

>  <AliphaticRings>  (95) 
1

>  <AliphaticCarboCycles>  (95) 
1

>  <AliphaticHeteroCycles>  (95) 
0

>  <Bridgehead>  (95) 
0

>  <Spiro>  (95) 
0

>  <LipinskiR3>  (95) 
1

>  <LipinskiR5>  (95) 
1

>  <Ghose>  (95) 
0

>  <Veber>  (95) 
1

>  <REOS>  (95) 
0

>  <Drug-like>  (95) 
1

>  <QED_MaxWeight>  (95) 
0.48599999999999999

>  <QED_MeanWeight>  (95) 
0.53600000000000003

>  <QED_NoWeight>  (95) 
0.65800000000000003

>  <Reference_Name>  (95) 
CHEMBL25

>  <Reference_SMILES>  (95) 
CC(=O)Oc1ccccc1C(=O)O

>  <Reference_Molecule_SMILES>  (95) 
CC(=O)Oc1ccccc1C(=O)O

>  <Morgan_Tanimoto_Distance>  (95) 
0.85714285714285721

>  <CATS_Euclidean_Distance>  (95) 
36.262928728937489

>  <Gobbi_2Dphp_Tanimoto_Distance>  (95) 
0.95679012345679015

>  <2Dphp_Tanimoto_Distance>  (95) 
0.80769230769230771

>  <Synthetic_Accessibility>  (95) 
3.8640159928074791

$$$$
CHEMBL25-Var3933
     RDKit          2D

 13 12  0  0  0  0  0  0  0  0999 V2000
   -1.2990    0.7500    0.0000 O   0  0  0  0  0  0  0  0  0  0  0  0
    0.0000    0.0000    0.0000 C   0  0  0  0  0  0  0  0  0  0  0  0
    1.2990    0.7500    0.0000 C   0  0  0  0  0  0  0  0  0  0  0  0
    1.2990    2.2500    0.0000 O   0  0  0  0  0  0  0  0  0  0  0  0
    2.5981   -0.0000    0.0000 C   0  0  0  0  0  0  0  0  0  0  0  0
    2.5981   -1.5000    0.0000 O   0  0  0  0  0  0  0  0  0  0  0  0
    3.8971    0.7500    0.0000 C   0  0  0  0  0  0  0  0  0  0  0  0
    3.8971    2.2500    0.0000 O   0  0  0  0  0  0  0  0  0  0  0  0
    5.1962   -0.0000    0.0000 C   0  0  0  0  0  0  0  0  0  0  0  0
    5.1962   -1.5000    0.0000 O   0  0  0  0  0  0  0  0  0  0  0  0
    6.4952    0.7500    0.0000 C   0  0  0  0  0  0  0  0  0  0  0  0
    6.4952    2.2500    0.0000 O   0  0  0  0  0  0  0  0  0  0  0  0
    7.7942   -0.0000    0.0000 O   0  0  0  0  0  0  0  0  0  0  0  0
  1  2  2  0
  2  3  1  0
  3  4  1  0
  3  5  1  0
  5  6  1  0
  5  7  1  0
  7  8  1  0
  7  9  1  0
  9 10  1  0
  9 11  1  0
 11 12  2  0
 11 13  1  0
M  END
>  <SMILES>  (96) 
O=CC(O)C(O)C(O)C(O)C(=O)O

>  <Formula>  (96) 
C6H10O7

>  <MW>  (96) 
194.13900000000001

>  <HeavyAtoms>  (96) 
13

>  <TotalAtoms>  (96) 
13

>  <FormalCharge>  (96) 
0

>  <CLogP>  (96) 
-3.2869999999999999

>  <MolarRefractivity>  (96) 
37.726999999999997

>  <SP3Fraction>  (96) 
0.66700000000000004

>  <TPSA>  (96) 
135.28999999999999

>  <LabuteASA>  (96) 
72.858000000000004

>  <RotatableBonds>  (96) 
5

>  <LHBD>  (96) 
5

>  <HBD>  (96) 
5

>  <LHBA>  (96) 
7

>  <HBA>  (96) 
6

>  <TotalRings>  (96) 
0

>  <AromaticRings>  (96) 
0

>  <AromaticCarboCycles>  (96) 
0

>  <AromaticHeteroCycles>  (96) 
0

>  <AliphaticRings>  (96) 
0

>  <AliphaticCarboCycles>  (96) 
0

>  <AliphaticHeteroCycles>  (96) 
0

>  <Bridgehead>  (96) 
0

>  <Spiro>  (96) 
0

>  <LipinskiR3>  (96) 
0

>  <LipinskiR5>  (96) 
1

>  <Ghose>  (96) 
0

>  <Veber>  (96) 
1

>  <REOS>  (96) 
0

>  <Drug-like>  (96) 
0

>  <QED_MaxWeight>  (96) 
0.32000000000000001

>  <QED_MeanWeight>  (96) 
0.28899999999999998

>  <QED_NoWeight>  (96) 
0.26600000000000001

>  <Reference_Name>  (96) 
CHEMBL25

>  <Reference_SMILES>  (96) 
CC(=O)Oc1ccccc1C(=O)O

>  <Reference_Molecule_SMILES>  (96) 
CC(=O)Oc1ccccc1C(=O)O

>  <Morgan_Tanimoto_Distance>  (96) 
0.83999999999999997

>  <CATS_Euclidean_Distance>  (96) 
43.058100283221968

>  <Gobbi_2Dphp_Tanimoto_Distance>  (96) 
0.95161290322580649

>  <2Dphp_Tanimoto_Distance>  (96) 
0.78333333333333333

>  <Synthetic_Accessibility>  (96) 
3.8626967752433128

$$$$
CHEMBL25-Var2682
     RDKit          2D

 11 12  0  0  0  0  0  0  0  0999 V2000
   -3.4140    3.0616    0.0000 O   0  0  0  0  0  0  0  0  0  0  0  0
   -4.1640    1.7626    0.0000 C   0  0  0  0  0  0  0  0  0  0  0  0
   -5.6640    1.7626    0.0000 O   0  0  0  0  0  0  0  0  0  0  0  0
   -3.4140    0.4635    0.0000 C   0  0  0  0  0  0  0  0  0  0  0  0
   -1.9140    0.4635    0.0000 C   0  0  0  0  0  0  0  0  0  0  0  0
   -1.0323    1.6771    0.0000 C   0  0  0  0  0  0  0  0  0  0  0  0
    0.3943    1.2135    0.0000 C   0  0  0  0  0  0  0  0  0  0  0  0
    1.2760    0.0000    0.0000 C   0  0  0  0  0  0  0  0  0  0  0  0
    0.3943   -1.2135    0.0000 C   0  0  0  0  0  0  0  0  0  0  0  0
   -1.0323   -0.7500    0.0000 C   0  0  0  0  0  0  0  0  0  0  0  0
   -1.0323    0.7500    0.0000 C   0  0  0  0  0  0  0  0  0  0  0  0
  1  2  2  0
  2  3  1  0
  2  4  1  0
  4  5  1  0
  5  6  1  0
  6  7  1  0
  7  8  1  0
  8  9  1  0
  9 10  1  0
 10 11  1  0
 10  5  1  0
 11  7  1  0
M  END
>  <SMILES>  (97) 
O=C(O)CC1CC2CCC1C2

>  <Formula>  (97) 
C9H14O2

>  <MW>  (97) 
154.209

>  <HeavyAtoms>  (97) 
11

>  <TotalAtoms>  (97) 
11

>  <FormalCharge>  (97) 
0

>  <CLogP>  (97) 
1.897

>  <MolarRefractivity>  (97) 
41.191000000000003

>  <SP3Fraction>  (97) 
0.88900000000000001

>  <TPSA>  (97) 
37.299999999999997

>  <LabuteASA>  (97) 
66.602999999999994

>  <RotatableBonds>  (97) 
2

>  <LHBD>  (97) 
1

>  <HBD>  (97) 
1

>  <LHBA>  (97) 
2

>  <HBA>  (97) 
1

>  <TotalRings>  (97) 
2

>  <AromaticRings>  (97) 
0

>  <AromaticCarboCycles>  (97) 
0

>  <AromaticHeteroCycles>  (97) 
0

>  <AliphaticRings>  (97) 
2

>  <AliphaticCarboCycles>  (97) 
2

>  <AliphaticHeteroCycles>  (97) 
0

>  <Bridgehead>  (97) 
2

>  <Spiro>  (97) 
0

>  <LipinskiR3>  (97) 
1

>  <LipinskiR5>  (97) 
1

>  <Ghose>  (97) 
0

>  <Veber>  (97) 
1

>  <REOS>  (97) 
0

>  <Drug-like>  (97) 
1

>  <QED_MaxWeight>  (97) 
0.67300000000000004

>  <QED_MeanWeight>  (97) 
0.65900000000000003

>  <QED_NoWeight>  (97) 
0.70799999999999996

>  <Reference_Name>  (97) 
CHEMBL25

>  <Reference_SMILES>  (97) 
CC(=O)Oc1ccccc1C(=O)O

>  <Reference_Molecule_SMILES>  (97) 
CC(=O)Oc1ccccc1C(=O)O

>  <Morgan_Tanimoto_Distance>  (97) 
0.84615384615384615

>  <CATS_Euclidean_Distance>  (97) 
35.860842154082214

>  <Gobbi_2Dphp_Tanimoto_Distance>  (97) 
0.99295774647887325

>  <2Dphp_Tanimoto_Distance>  (97) 
0.87037037037037035

>  <Synthetic_Accessibility>  (97) 
3.8552969499314091

$$$$
CHEMBL25-Var510
     RDKit          2D

 13 13  0  0  0  0  0  0  0  0999 V2000
    5.0260    1.2990    0.0000 C   0  0  0  0  0  0  0  0  0  0  0  0
    3.5260    1.2990    0.0000 C   0  0  0  0  0  0  0  0  0  0  0  0
    2.7760    2.5981    0.0000 O   0  0  0  0  0  0  0  0  0  0  0  0
    2.7760    0.0000    0.0000 O   0  0  0  0  0  0  0  0  0  0  0  0
    1.2760    0.0000    0.0000 C   0  0  0  0  0  0  0  0  0  0  0  0
    0.3943    1.2135    0.0000 O   0  0  0  0  0  0  0  0  0  0  0  0
   -1.0323    0.7500    0.0000 C   0  0  0  0  0  0  0  0  0  0  0  0
   -1.0323   -0.7500    0.0000 C   0  0  0  0  0  0  0  0  0  0  0  0
   -2.2458   -1.6317    0.0000 C   0  0  0  0  0  0  0  0  0  0  0  0
   -3.6161   -1.0216    0.0000 C   0  0  0  0  0  0  0  0  0  0  0  0
   -2.0890   -3.1235    0.0000 O   0  0  0  0  0  0  0  0  0  0  0  0
    0.3943   -1.2135    0.0000 C   0  0  0  0  0  0  0  0  0  0  0  0
    0.8578   -2.6401    0.0000 C   0  0  0  0  0  0  0  0  0  0  0  0
  1  2  1  0
  2  3  2  0
  2  4  1  0
  4  5  1  0
  5  6  1  0
  6  7  1  0
  7  8  1  0
  8  9  1  0
  9 10  1  0
  9 11  2  0
  8 12  1  0
 12 13  1  0
 12  5  1  0
M  END
>  <SMILES>  (98) 
CC(=O)OC1OCC(C(C)=O)C1C

>  <Formula>  (98) 
C9H14O4

>  <MW>  (98) 
186.20699999999999

>  <HeavyAtoms>  (98) 
13

>  <TotalAtoms>  (98) 
13

>  <FormalCharge>  (98) 
0

>  <CLogP>  (98) 
0.747

>  <MolarRefractivity>  (98) 
44.841000000000001

>  <SP3Fraction>  (98) 
0.77800000000000002

>  <TPSA>  (98) 
52.600000000000001

>  <LabuteASA>  (98) 
77.203000000000003

>  <RotatableBonds>  (98) 
2

>  <LHBD>  (98) 
0

>  <HBD>  (98) 
0

>  <LHBA>  (98) 
4

>  <HBA>  (98) 
4

>  <TotalRings>  (98) 
1

>  <AromaticRings>  (98) 
0

>  <AromaticCarboCycles>  (98) 
0

>  <AromaticHeteroCycles>  (98) 
0

>  <AliphaticRings>  (98) 
1

>  <AliphaticCarboCycles>  (98) 
0

>  <AliphaticHeteroCycles>  (98) 
1

>  <Bridgehead>  (98) 
0

>  <Spiro>  (98) 
0

>  <LipinskiR3>  (98) 
1

>  <LipinskiR5>  (98) 
1

>  <Ghose>  (98) 
0

>  <Veber>  (98) 
1

>  <REOS>  (98) 
0

>  <Drug-like>  (98) 
1

>  <QED_MaxWeight>  (98) 
0.59599999999999997

>  <QED_MeanWeight>  (98) 
0.59699999999999998

>  <QED_NoWeight>  (98) 
0.65900000000000003

>  <Reference_Name>  (98) 
CHEMBL25

>  <Reference_SMILES>  (98) 
CC(=O)Oc1ccccc1C(=O)O

>  <Reference_Molecule_SMILES>  (98) 
CC(=O)Oc1ccccc1C(=O)O

>  <Morgan_Tanimoto_Distance>  (98) 
0.7407407407407407

>  <CATS_Euclidean_Distance>  (98) 
35.818989377144632

>  <Gobbi_2Dphp_Tanimoto_Distance>  (98) 
0.971830985915493

>  <2Dphp_Tanimoto_Distance>  (98) 
0.80000000000000004

>  <Synthetic_Accessibility>  (98) 
3.8480006429787643

$$$$
CHEMBL25-Var3722
     RDKit          2D

 13 14  0  0  0  0  0  0  0  0999 V2000
    3.7500    1.2990    0.0000 O   0  0  0  0  0  0  0  0  0  0  0  0
    3.0000    0.0000    0.0000 C   0  0  0  0  0  0  0  0  0  0  0  0
    3.7500   -1.2990    0.0000 O   0  0  0  0  0  0  0  0  0  0  0  0
    1.5000    0.0000    0.0000 C   0  0  0  0  0  0  0  0  0  0  0  0
    0.7500   -1.2990    0.0000 C   0  0  0  0  0  0  0  0  0  0  0  0
   -0.7500   -1.2990    0.0000 C   0  0  0  0  0  0  0  0  0  0  0  0
   -1.5000    0.0000    0.0000 C   0  0  0  0  0  0  0  0  0  0  0  0
   -2.9672   -0.3119    0.0000 O   0  0  0  0  0  0  0  0  0  0  0  0
   -3.1240   -1.8037    0.0000 N   0  0  0  0  0  0  0  0  0  0  0  0
   -1.7537   -2.4138    0.0000 C   0  0  0  0  0  0  0  0  0  0  0  0
   -1.4418   -3.8810    0.0000 O   0  0  0  0  0  0  0  0  0  0  0  0
   -0.7500    1.2990    0.0000 C   0  0  0  0  0  0  0  0  0  0  0  0
    0.7500    1.2990    0.0000 N   0  0  0  0  0  0  0  0  0  0  0  0
  1  2  2  0
  2  3  1  0
  2  4  1  0
  4  5  1  0
  5  6  1  0
  6  7  2  0
  7  8  1  0
  8  9  1  0
  9 10  1  0
 10 11  2  0
  7 12  1  0
 12 13  1  0
 13  4  1  0
 10  6  1  0
M  END
>  <SMILES>  (99) 
O=C(O)C1Cc2c(o[nH]c2=O)CN1

>  <Formula>  (99) 
C7H8N2O4

>  <MW>  (99) 
184.15100000000001

>  <HeavyAtoms>  (99) 
13

>  <TotalAtoms>  (99) 
13

>  <FormalCharge>  (99) 
0

>  <CLogP>  (99) 
-0.93300000000000005

>  <MolarRefractivity>  (99) 
41.295999999999999

>  <SP3Fraction>  (99) 
0.42899999999999999

>  <TPSA>  (99) 
95.329999999999998

>  <LabuteASA>  (99) 
72.518000000000001

>  <RotatableBonds>  (99) 
1

>  <LHBD>  (99) 
3

>  <HBD>  (99) 
3

>  <LHBA>  (99) 
6

>  <HBA>  (99) 
4

>  <TotalRings>  (99) 
2

>  <AromaticRings>  (99) 
1

>  <AromaticCarboCycles>  (99) 
0

>  <AromaticHeteroCycles>  (99) 
1

>  <AliphaticRings>  (99) 
1

>  <AliphaticCarboCycles>  (99) 
0

>  <AliphaticHeteroCycles>  (99) 
1

>  <Bridgehead>  (99) 
0

>  <Spiro>  (99) 
0

>  <LipinskiR3>  (99) 
1

>  <LipinskiR5>  (99) 
1

>  <Ghose>  (99) 
0

>  <Veber>  (99) 
1

>  <REOS>  (99) 
0

>  <Drug-like>  (99) 
1

>  <QED_MaxWeight>  (99) 
0.54600000000000004

>  <QED_MeanWeight>  (99) 
0.52400000000000002

>  <QED_NoWeight>  (99) 
0.54000000000000004

>  <Reference_Name>  (99) 
CHEMBL25

>  <Reference_SMILES>  (99) 
CC(=O)Oc1ccccc1C(=O)O

>  <Reference_Molecule_SMILES>  (99) 
CC(=O)Oc1ccccc1C(=O)O

>  <Morgan_Tanimoto_Distance>  (99) 
0.83870967741935487

>  <CATS_Euclidean_Distance>  (99) 
21.071307505705477

>  <Gobbi_2Dphp_Tanimoto_Distance>  (99) 
0.9027027027027027

>  <2Dphp_Tanimoto_Distance>  (99) 
0.76829268292682928

>  <Synthetic_Accessibility>  (99) 
3.8465389747743384

$$$$
CHEMBL25-Var2380
     RDKit          2D

 14 15  0  0  0  0  0  0  0  0999 V2000
    4.8170    6.1471    0.0000 C   0  0  0  0  0  0  0  0  0  0  0  0
    4.0670    4.8481    0.0000 C   0  0  0  0  0  0  0  0  0  0  0  0
    2.5670    4.8481    0.0000 C   0  0  0  0  0  0  0  0  0  0  0  0
    1.8170    3.5490    0.0000 N   0  0  0  0  0  0  0  0  0  0  0  0
    0.3170    3.5490    0.0000 C   0  0  0  0  0  0  0  0  0  0  0  0
   -0.4330    4.8481    0.0000 O   0  0  0  0  0  0  0  0  0  0  0  0
   -0.4330    2.2500    0.0000 C   0  0  0  0  0  0  0  0  0  0  0  0
   -1.7321    1.5000    0.0000 C   0  0  0  0  0  0  0  0  0  0  0  0
   -0.4330    0.7500    0.0000 C   0  0  0  0  0  0  0  0  0  0  0  0
    0.8660    0.0000    0.0000 C   0  0  0  0  0  0  0  0  0  0  0  0
   -0.4330   -0.7500    0.0000 C   0  0  0  0  0  0  0  0  0  0  0  0
    1.8170    6.1471    0.0000 C   0  0  0  0  0  0  0  0  0  0  0  0
    0.3170    6.1471    0.0000 O   0  0  0  0  0  0  0  0  0  0  0  0
    2.5670    7.4462    0.0000 O   0  0  0  0  0  0  0  0  0  0  0  0
  1  2  1  0
  2  3  2  3
  3  4  1  0
  4  5  1  0
  5  6  2  0
  5  7  1  0
  7  8  1  0
  8  9  1  0
  9 10  1  0
 10 11  1  0
  3 12  1  0
 12 13  2  0
 12 14  1  0
  9  7  1  0
 11  9  1  0
M  END
>  <SMILES>  (100) 
CC=C(NC(=O)C1CC12CC2)C(=O)O

>  <Formula>  (100) 
C10H13NO3

>  <MW>  (100) 
195.21799999999999

>  <HeavyAtoms>  (100) 
14

>  <TotalAtoms>  (100) 
14

>  <FormalCharge>  (100) 
0

>  <CLogP>  (100) 
0.89100000000000001

>  <MolarRefractivity>  (100) 
49.310000000000002

>  <SP3Fraction>  (100) 
0.59999999999999998

>  <TPSA>  (100) 
66.400000000000006

>  <LabuteASA>  (100) 
81.989999999999995

>  <RotatableBonds>  (100) 
3

>  <LHBD>  (100) 
2

>  <HBD>  (100) 
2

>  <LHBA>  (100) 
4

>  <HBA>  (100) 
2

>  <TotalRings>  (100) 
2

>  <AromaticRings>  (100) 
0

>  <AromaticCarboCycles>  (100) 
0

>  <AromaticHeteroCycles>  (100) 
0

>  <AliphaticRings>  (100) 
2

>  <AliphaticCarboCycles>  (100) 
2

>  <AliphaticHeteroCycles>  (100) 
0

>  <Bridgehead>  (100) 
0

>  <Spiro>  (100) 
1

>  <LipinskiR3>  (100) 
1

>  <LipinskiR5>  (100) 
1

>  <Ghose>  (100) 
0

>  <Veber>  (100) 
1

>  <REOS>  (100) 
0

>  <Drug-like>  (100) 
1

>  <QED_MaxWeight>  (100) 
0.65600000000000003

>  <QED_MeanWeight>  (100) 
0.65700000000000003

>  <QED_NoWeight>  (100) 
0.71699999999999997

>  <Reference_Name>  (100) 
CHEMBL25

>  <Reference_SMILES>  (100) 
CC(=O)Oc1ccccc1C(=O)O

>  <Reference_Molecule_SMILES>  (100) 
CC(=O)Oc1ccccc1C(=O)O

>  <Morgan_Tanimoto_Distance>  (100) 
0.83333333333333337

>  <CATS_Euclidean_Distance>  (100) 
36

>  <Gobbi_2Dphp_Tanimoto_Distance>  (100) 
0.97499999999999998

>  <2Dphp_Tanimoto_Distance>  (100) 
0.81081081081081074

>  <Synthetic_Accessibility>  (100) 
3.8464547108988389

$$$$
